1NVS_UCM_A_400
  RCSB PDB08012015343D
Coordinates from PDB:1NVS:A:400 Model:1 without hydrogens
 30 37  0  0  0  0            999 V2000
    6.3370   10.2630   19.4530   N 0  0  0  0  0  0  0  0  0  0  0  0
    4.9270    9.6930   19.4870   C 0  0  0  0  0  0  0  0  0  0  0  0
    3.9870   10.2130   20.0680   O 0  0  0  0  0  0  0  0  0  0  0  0
    4.8800    8.4450   18.7220   C 0  0  0  0  0  0  0  0  0  0  0  0
    3.7830    7.5530   18.4640   C 0  0  0  0  0  0  0  0  0  0  0  0
    2.3870    7.4760   18.7990   C 0  0  0  0  0  0  0  0  0  0  0  0
    1.8740    6.2920   18.1930   C 0  0  0  0  0  0  0  0  0  0  0  0
    0.4900    5.9220   18.3350   C 0  0  0  0  0  0  0  0  0  0  0  0
   -0.4050    6.7390   19.0910   C 0  0  0  0  0  0  0  0  0  0  0  0
    0.0850    7.9280   19.7090   C 0  0  0  0  0  0  0  0  0  0  0  0
    1.4600    8.2870   19.5600   C 0  0  0  0  0  0  0  0  0  0  0  0
    2.9280    5.6750   17.5190   N 0  0  0  0  0  0  0  0  0  0  0  0
    4.0930    6.4170   17.6690   C 0  0  0  0  0  0  0  0  0  0  0  0
    5.3640    6.1650   17.1600   C 0  0  0  0  0  0  0  0  0  0  0  0
    5.8000    5.1030   16.3760   N 0  0  0  0  0  0  0  0  0  0  0  0
    7.1480    5.2390   16.0860   C 0  0  0  0  0  0  0  0  0  0  0  0
    7.6020    6.4390   16.7080   C 0  0  0  0  0  0  0  0  0  0  0  0
    8.9950    6.7870   16.5340   C 0  0  0  0  0  0  0  0  0  0  0  0
    9.8900    5.9780   15.7760   C 0  0  0  0  0  0  0  0  0  0  0  0
    9.4120    4.7830   15.1670   C 0  0  0  0  0  0  0  0  0  0  0  0
    8.0420    4.4130   15.3190   C 0  0  0  0  0  0  0  0  0  0  0  0
    6.4740    7.0150   17.3860   C 0  0  0  0  0  0  0  0  0  0  0  0
    6.2080    8.1800   18.1890   C 0  0  0  0  0  0  0  0  0  0  0  0
    7.0980    9.2560   18.6150   C 0  0  0  0  0  0  0  0  0  0  0  0
    8.2800    9.3470   18.3440   O 0  0  0  0  0  0  0  0  0  0  0  0
    4.9590    3.9740   15.9060   C 0  0  0  0  0  0  0  0  0  0  0  0
    3.9990    3.6000   16.9070   O 0  0  0  0  0  0  0  0  0  0  0  0
    2.8140    4.4020   16.7530   C 0  0  0  0  0  0  0  0  0  0  0  0
    2.7220    4.6730   15.2460   C 0  0  0  0  0  0  0  0  0  0  0  0
    4.1190    4.3910   14.6920   C 0  0  0  0  0  0  0  0  0  0  0  0
  1  2  1  0  0  0  0
  1 24  1  0  0  0  0
  2  3  2  0  0  0  0
  2  4  1  0  0  0  0
  4  5  2  0  0  0  0
  4 23  1  0  0  0  0
  5  6  1  0  0  0  0
  5 13  1  0  0  0  0
  6  7  2  0  0  0  0
  6 11  1  0  0  0  0
  7  8  1  0  0  0  0
  7 12  1  0  0  0  0
  8  9  2  0  0  0  0
  9 10  1  0  0  0  0
 10 11  2  0  0  0  0
 12 13  1  0  0  0  0
 12 28  1  0  0  0  0
 13 14  2  0  0  0  0
 14 15  1  0  0  0  0
 14 22  1  0  0  0  0
 15 16  1  0  0  0  0
 15 26  1  0  0  0  0
 16 17  2  0  0  0  0
 16 21  1  0  0  0  0
 17 18  1  0  0  0  0
 17 22  1  0  0  0  0
 18 19  2  0  0  0  0
 19 20  1  0  0  0  0
 20 21  2  0  0  0  0
 22 23  2  0  0  0  0
 23 24  1  0  0  0  0
 24 25  2  0  0  0  0
 26 27  1  0  0  0  0
 26 30  1  0  0  0  0
 27 28  1  0  0  0  0
 28 29  1  0  0  0  0
 29 30  1  0  0  0  0
M  END
>  <InstanceId>
1NVS_UCM_A_400

>  <ChemCompId>
UCM

>  <PdbId>
1NVS

>  <ChainId>
A

>  <ResidueNumber>
400

>  <InsertionCode>


>  <Model>
1

>  <AltIds>


>  <MissingHeavyAtoms>
0

>  <ObservedFormula>
C24 N3 O3

>  <Name>
REL-(9R,12S)-9,10,11,12-TETRAHYDRO-9,12-EPOXY-1H-DIINDOLO[1,2,3-FG:3',2',1'-KL]PYRROLO[3,4-I][1,6]BENZODIAZOCINE-1,3(2H)-DIONE

>  <SystematicName>


>  <Synonyms>
SB218078

>  <Type>
NON-POLYMER

>  <Formula>
C24 H15 N3 O3

>  <MolecularWeight>
393.394

>  <ModifiedDate>
2011-06-04

>  <Parent>


>  <OneLetterCode>


>  <SubcomponentList>


>  <AmbiguousFlag>
N

>  <InChI>
InChI=1S/C24H15N3O3/c28-23-19-17-11-5-1-3-7-13(11)26-15-9-10-16(30-15)27-14-8-4-2-6-12(14)18(22(27)21(17)26)20(19)24(29)25-23/h1-8,15-16H,9-10H2,(H,25,28,29)/t15-,16+

>  <InChIKey>
OTPNDVKVEAIXTI-IYBDPMFKSA-N

>  <SMILES>
c1ccc2c(c1)c3c4c(c5c6ccccc6n7c5c3n2[C@H]8CC[C@@H]7O8)C(=O)NC4=O

$$$$
