3VF7_031_A_201
  RCSB PDB08012020473D
Coordinates from PDB:3VF7:A:201 Model:1 without hydrogens
 42 46  0  0  0  0            999 V2000
    7.3650   14.1990   14.7430   O 0  0  0  0  0  0  0  0  0  0  0  0
    6.0010   14.2340   15.1570   C 0  0  0  0  0  0  0  0  0  0  0  0
    8.0210   15.3540   14.9890   C 0  0  0  0  0  0  0  0  0  0  0  0
    7.4450   16.4900   15.5500   C 0  0  0  0  0  0  0  0  0  0  0  0
    8.2580   17.6180   15.6820   C 0  0  0  0  0  0  0  0  0  0  0  0
    9.6220   17.5730   15.4340   C 0  0  0  0  0  0  0  0  0  0  0  0
   10.1670   16.4490   14.8690   C 0  0  0  0  0  0  0  0  0  0  0  0
    9.3470   15.3550   14.5850   C 0  0  0  0  0  0  0  0  0  0  0  0
   10.6240   18.9600   15.8910   S 0  0  0  0  0  0  0  0  0  0  0  0
   11.7350   19.0630   14.8760   O 0  0  0  0  0  0  0  0  0  0  0  0
    9.7410   20.1000   16.0820   O 0  0  0  0  0  0  0  0  0  0  0  0
   11.3200   18.5870   17.3360   N 0  0  0  0  0  0  0  0  0  0  0  0
   10.4260   18.1800   18.3720   C 0  0  0  0  0  0  0  0  0  0  0  0
   10.9490   18.4420   19.7990   C 0  0  0  0  0  0  0  0  0  0  0  0
   10.9400   19.9180   20.1940   C 0  0  0  0  0  0  0  0  0  0  0  0
    9.9710   17.7940   20.6790   N 0  0  0  0  0  0  0  0  0  0  0  0
    9.1240   18.6780   21.1470   C 0  0  0  0  0  0  0  0  0  0  0  0
    8.1410   18.3470   21.8070   O 0  0  0  0  0  0  0  0  0  0  0  0
    9.5330   20.0870   20.7710   C 0  0  0  0  0  0  0  0  0  0  0  0
   12.6160   17.9410   17.3670   C 0  0  0  0  0  0  0  0  0  0  0  0
   13.6710   18.8820   18.0130   C 0  0  0  0  0  0  0  0  0  0  0  0
   14.7690   18.0290   18.3120   O 0  0  0  0  0  0  0  0  0  0  0  0
   14.0560   20.0080   17.0580   C 0  0  0  0  0  0  0  0  0  0  0  0
   14.8780   20.9600   17.7760   N 0  0  0  0  0  0  0  0  0  0  0  0
   14.4480   22.1160   18.2900   C 0  0  0  0  0  0  0  0  0  0  0  0
   13.3460   22.5970   18.2000   O 0  0  0  0  0  0  0  0  0  0  0  0
   15.4600   22.7790   18.9330   O 0  0  0  0  0  0  0  0  0  0  0  0
   15.1760   25.0400   18.0720   C 0  0  0  0  0  0  0  0  0  0  0  0
   15.1550   24.1280   19.2940   C 0  0  0  0  0  0  0  0  0  0  0  0
   16.3160   24.6260   20.1840   C 0  0  0  0  0  0  0  0  0  0  0  0
   17.3790   25.0690   19.2010   C 0  0  0  0  0  0  0  0  0  0  0  0
   18.2090   23.9750   18.7890   O 0  0  0  0  0  0  0  0  0  0  0  0
   18.1100   23.6780   17.4330   C 0  0  0  0  0  0  0  0  0  0  0  0
   17.4160   24.9240   16.8180   C 0  0  0  0  0  0  0  0  0  0  0  0
   16.6190   25.5040   17.9750   C 0  0  0  0  0  0  0  0  0  0  0  0
   14.8060   19.5940   15.7770   C 0  0  0  0  0  0  0  0  0  0  0  0
   16.4780   21.2120   14.7920   C 0  0  0  0  0  0  0  0  0  0  0  0
   16.7700   22.3530   14.0350   C 0  0  0  0  0  0  0  0  0  0  0  0
   15.7490   23.0220   13.3470   C 0  0  0  0  0  0  0  0  0  0  0  0
   14.4500   22.5180   13.3590   C 0  0  0  0  0  0  0  0  0  0  0  0
   14.1610   21.4000   14.1400   C 0  0  0  0  0  0  0  0  0  0  0  0
   15.1520   20.7620   14.8730   C 0  0  0  0  0  0  0  0  0  0  0  0
  2  1  1  0  0  0  0
  3  1  1  0  0  0  0
  4  3  2  0  0  0  0
  3  8  1  0  0  0  0
  5  4  1  0  0  0  0
  5  6  2  0  0  0  0
  9  6  1  0  0  0  0
  6  7  1  0  0  0  0
  7  8  2  0  0  0  0
 11  9  2  0  0  0  0
 12  9  1  0  0  0  0
  9 10  2  0  0  0  0
 13 12  1  0  0  0  0
 12 20  1  0  0  0  0
 14 13  1  0  0  0  0
 16 14  1  0  0  0  0
 15 14  1  0  0  0  0
 19 15  1  0  0  0  0
 17 16  1  0  0  0  0
 18 17  2  0  0  0  0
 17 19  1  0  0  0  0
 21 20  1  0  0  0  0
 21 23  1  0  0  0  0
 21 22  1  0  0  0  0
 24 23  1  0  0  0  0
 23 36  1  0  0  0  0
 25 24  1  0  0  0  0
 26 25  2  0  0  0  0
 27 25  1  0  0  0  0
 29 27  1  0  0  0  0
 29 28  1  0  0  0  0
 28 35  1  0  0  0  0
 30 29  1  0  0  0  0
 30 31  1  0  0  0  0
 31 35  1  0  0  0  0
 31 32  1  0  0  0  0
 32 33  1  0  0  0  0
 34 33  1  0  0  0  0
 35 34  1  0  0  0  0
 36 42  1  0  0  0  0
 42 37  2  0  0  0  0
 37 38  1  0  0  0  0
 39 38  2  0  0  0  0
 40 39  1  0  0  0  0
 41 40  2  0  0  0  0
 41 42  1  0  0  0  0
M  END
>  <InstanceId>
3VF7_031_A_201

>  <ChemCompId>
031

>  <PdbId>
3VF7

>  <ChainId>
A

>  <ResidueNumber>
201

>  <InsertionCode>


>  <Model>
1

>  <AltIds>


>  <MissingHeavyAtoms>
0

>  <ObservedFormula>
C30 N3 O8 S

>  <Name>
(3aS,5R,6aR)-hexahydro-2H-cyclopenta[b]furan-5-yl [(1S,2R)-1-benzyl-2-hydroxy-3-([(4-methoxyphenyl)sulfonyl]{[(2R)-5-oxopyrrolidin-2-yl]methyl}amino)propyl]carbamate

>  <SystematicName>
[(3aS,5R,6aR)-3,3a,4,5,6,6a-hexahydro-2H-cyclopenta[b]furan-5-yl] N-[(2S,3R)-3-hydroxy-4-[(4-methoxyphenyl)sulfonyl-[[(2R)-5-oxopyrrolidin-2-yl]methyl]amino]-1-phenyl-butan-2-yl]carbamate

>  <Synonyms>


>  <Type>
NON-POLYMER

>  <Formula>
C30 H39 N3 O8 S

>  <MolecularWeight>
601.711

>  <ModifiedDate>
2011-06-04

>  <Parent>


>  <OneLetterCode>


>  <SubcomponentList>


>  <AmbiguousFlag>
N

>  <InChI>
InChI=1S/C30H39N3O8S/c1-39-23-8-10-25(11-9-23)42(37,38)33(18-22-7-12-29(35)31-22)19-27(34)26(15-20-5-3-2-4-6-20)32-30(36)41-24-16-21-13-14-40-28(21)17-24/h2-6,8-11,21-22,24,26-28,34H,7,12-19H2,1H3,(H,31,35)(H,32,36)/t21-,22+,24+,26-,27+,28+/m0/s1

>  <InChIKey>
RPIALZPTIFOQGC-CXLNPQPMSA-N

>  <SMILES>
COc1ccc(cc1)S(=O)(=O)[N@@](C[C@H]2CCC(=O)N2)C[C@H]([C@H](Cc3ccccc3)NC(=O)O[C@@H]4C[C@@H]5CCO[C@@H]5C4)O

$$$$
