4GII_0X6_A_1201
  RCSB PDB08012021493D
Coordinates from PDB:4GII:A:1201 Model:1 without hydrogens
 25 27  0  0  0  0            999 V2000
   -9.6390  -10.8520  -17.2860   C 0  0  0  0  0  0  0  0  0  0  0  0
   -4.6160   -4.8750  -16.1640   C 0  0  0  0  0  0  0  0  0  0  0  0
   -8.8460   -9.7030  -17.2500   C 0  0  0  0  0  0  0  0  0  0  0  0
   -8.7340   -8.9640  -16.0700   C 0  0  0  0  0  0  0  0  0  0  0  0
   -7.3100   -4.5030  -15.4890   C 0  0  0  0  0  0  0  0  0  0  0  0
   -7.5980   -6.9540  -15.1290   C 0  0  0  0  0  0  0  0  0  0  0  0
   -6.7500   -5.7940  -15.4840   C 0  0  0  0  0  0  0  0  0  0  0  0
   -6.5250   -3.4120  -15.8140   C 0  0  0  0  0  0  0  0  0  0  0  0
   -5.1770   -3.5900  -16.1520   C 0  0  0  0  0  0  0  0  0  0  0  0
  -10.3280  -11.2080  -16.1990   N 0  0  0  0  0  0  0  0  0  0  0  0
   -9.4870   -9.3840  -14.9550   C 0  0  0  0  0  0  0  0  0  0  0  0
  -10.2740  -10.5230  -15.0600   C 0  0  0  0  0  0  0  0  0  0  0  0
   -7.9330   -7.8120  -16.1230   N 0  0  0  0  0  0  0  0  0  0  0  0
   -7.9630   -7.0850  -13.9710   O 0  0  0  0  0  0  0  0  0  0  0  0
   -5.3980   -5.9700  -15.8370   C 0  0  0  0  0  0  0  0  0  0  0  0
   -4.6910   -7.5500  -15.8820  Cl 0  0  0  0  0  0  0  0  0  0  0  0
   -4.3670   -2.4620  -16.4880   C 0  0  0  0  0  0  0  0  0  0  0  0
   -3.7160   -1.5720  -16.7520   N 0  0  0  0  0  0  0  0  0  0  0  0
   -8.9850   -4.2690  -15.0940  Cl 0  0  0  0  0  0  0  0  0  0  0  0
   -9.7530  -11.6350  -18.4470   N 0  0  0  0  0  0  0  0  0  0  0  0
   -8.7770  -11.8630  -19.3710   C 0  0  0  0  0  0  0  0  0  0  0  0
   -7.6650  -11.3590  -19.2850   O 0  0  0  0  0  0  0  0  0  0  0  0
   -9.1230  -12.7580  -20.5430   C 0  0  0  0  0  0  0  0  0  0  0  0
   -8.4290  -12.5480  -21.8920   C 0  0  0  0  0  0  0  0  0  0  0  0
   -8.0810  -13.7660  -21.0310   C 0  0  0  0  0  0  0  0  0  0  0  0
 24 25  1  0  0  0  0
 24 23  1  0  0  0  0
 25 23  1  0  0  0  0
 23 21  1  0  0  0  0
 21 22  2  0  0  0  0
 21 20  1  0  0  0  0
 20  1  1  0  0  0  0
  1  3  2  0  0  0  0
  1 10  1  0  0  0  0
  3  4  1  0  0  0  0
 18 17  3  0  0  0  0
 17  9  1  0  0  0  0
 10 12  2  0  0  0  0
  2  9  2  0  0  0  0
  2 15  1  0  0  0  0
  9  8  1  0  0  0  0
 13  4  1  0  0  0  0
 13  6  1  0  0  0  0
  4 11  2  0  0  0  0
 16 15  1  0  0  0  0
 15  7  2  0  0  0  0
  8  5  2  0  0  0  0
  5  7  1  0  0  0  0
  5 19  1  0  0  0  0
  7  6  1  0  0  0  0
  6 14  2  0  0  0  0
 12 11  1  0  0  0  0
M  END
>  <InstanceId>
4GII_0X6_A_1201

>  <ChemCompId>
0X6

>  <PdbId>
4GII

>  <ChainId>
A

>  <ResidueNumber>
1201

>  <InsertionCode>


>  <Model>
1

>  <AltIds>


>  <MissingHeavyAtoms>
0

>  <ObservedFormula>
C17 N4 O2 Cl2

>  <Name>
2,6-dichloro-4-cyano-N-{2-[(cyclopropylcarbonyl)amino]pyridin-4-yl}benzamide

>  <SystematicName>
2,6-bis(chloranyl)-4-cyano-N-[2-(cyclopropylcarbonylamino)pyridin-4-yl]benzamide

>  <Synonyms>


>  <Type>
NON-POLYMER

>  <Formula>
C17 H12 Cl2 N4 O2

>  <MolecularWeight>
375.209

>  <ModifiedDate>
2013-05-24

>  <Parent>


>  <OneLetterCode>


>  <SubcomponentList>


>  <AmbiguousFlag>
N

>  <InChI>
InChI=1S/C17H12Cl2N4O2/c18-12-5-9(8-20)6-13(19)15(12)17(25)22-11-3-4-21-14(7-11)23-16(24)10-1-2-10/h3-7,10H,1-2H2,(H2,21,22,23,24,25)

>  <InChIKey>
RNSIQMSJBYJUOS-UHFFFAOYSA-N

>  <SMILES>
c1cnc(cc1NC(=O)c2c(cc(cc2Cl)C#N)Cl)NC(=O)C3CC3

$$$$
