1DY4_SNP_A_437
  RCSB PDB08012014473D
Coordinates from PDB:1DY4:A:437 Model:1 without hydrogens
 19 20  0  0  0  0            999 V2000
   24.3160   54.8910   90.5540   C 0  0  0  0  0  0  0  0  0  0  0  0
   23.9770   54.1950   91.7520   C 0  0  0  0  0  0  0  0  0  0  0  0
   22.6480   53.7560   92.0320   C 0  0  0  0  0  0  0  0  0  0  0  0
   21.6110   54.0220   91.0850   C 0  0  0  0  0  0  0  0  0  0  0  0
   20.8780   54.9610   88.9690   C 0  0  0  0  0  0  0  0  0  0  0  0
   21.1500   55.6570   87.7500   C 0  0  0  0  0  0  0  0  0  0  0  0
   22.4810   56.0950   87.4710   C 0  0  0  0  0  0  0  0  0  0  0  0
   23.5190   55.8280   88.4210   C 0  0  0  0  0  0  0  0  0  0  0  0
   23.2560   55.1400   89.6330   C 0  0  0  0  0  0  0  0  0  0  0  0
   21.9120   54.7070   89.8930   C 0  0  0  0  0  0  0  0  0  0  0  0
   25.5940   55.3310   90.2450   O 0  0  0  0  0  0  0  0  0  0  0  0
   26.4520   55.8300   91.2610   C 0  0  0  0  0  0  0  0  0  0  0  0
   27.6980   56.4180   90.5970   C 0  0  0  0  0  0  0  0  0  0  0  0
   28.4170   55.3760   89.9660   O 0  0  0  0  0  0  0  0  0  0  0  0
   27.3520   57.4830   89.5430   C 0  0  0  0  0  0  0  0  0  0  0  0
   28.3890   58.4990   89.5320   N 0  0  0  0  0  0  0  0  0  0  0  0
   28.3430   59.3960   88.3940   C 0  0  0  0  0  0  0  0  0  0  0  0
   29.2470   58.8190   87.2860   C 0  0  0  0  0  0  0  0  0  0  0  0
   28.8230   60.8130   88.7670   C 0  0  0  0  0  0  0  0  0  0  0  0
  1  2  2  0  0  0  0
  1  9  1  0  0  0  0
  1 11  1  0  0  0  0
  2  3  1  0  0  0  0
  3  4  2  0  0  0  0
  4 10  1  0  0  0  0
  5  6  2  0  0  0  0
  5 10  1  0  0  0  0
  6  7  1  0  0  0  0
  7  8  2  0  0  0  0
  8  9  1  0  0  0  0
  9 10  2  0  0  0  0
 11 12  1  0  0  0  0
 12 13  1  0  0  0  0
 13 14  1  0  0  0  0
 13 15  1  0  0  0  0
 15 16  1  0  0  0  0
 16 17  1  0  0  0  0
 17 18  1  0  0  0  0
 17 19  1  0  0  0  0
M  END
>  <InstanceId>
1DY4_SNP_A_437

>  <ChemCompId>
SNP

>  <PdbId>
1DY4

>  <ChainId>
A

>  <ResidueNumber>
437

>  <InsertionCode>


>  <Model>
1

>  <AltIds>


>  <MissingHeavyAtoms>
0

>  <ObservedFormula>
C16 N O2

>  <Name>
1-(ISOPROPYLAMINO)-3-(1-NAPHTHYLOXY)-2-PROPANOL

>  <SystematicName>
(2S)-1-naphthalen-1-yloxy-3-(propan-2-ylamino)propan-2-ol

>  <Synonyms>
S-PROPRANOLOL

>  <Type>
NON-POLYMER

>  <Formula>
C16 H21 N O2

>  <MolecularWeight>
259.343

>  <ModifiedDate>
2011-07-05

>  <Parent>


>  <OneLetterCode>


>  <SubcomponentList>


>  <AmbiguousFlag>
N

>  <InChI>
InChI=1S/C16H21NO2/c1-12(2)17-10-14(18)11-19-16-9-5-7-13-6-3-4-8-15(13)16/h3-9,12,14,17-18H,10-11H2,1-2H3/t14-/m0/s1

>  <InChIKey>
AQHHHDLHHXJYJD-AWEZNQCLSA-N

>  <SMILES>
CC(C)NC[C@@H](COc1cccc2c1cccc2)O

$$$$
