3EL4_ROC_A_100
  RCSB PDB08012018563D
Coordinates from PDB:3EL4:A:100 Model:1 without hydrogens
 49 53  0  0  0  0            999 V2000
    6.2260   -6.3450   18.0590   C 0  0  0  0  0  0  0  0  0  0  0  0
    6.5210   -5.7370   19.0980   O 0  0  0  0  0  0  0  0  0  0  0  0
    5.2490   -8.1340   16.7940   N 0  0  0  0  0  0  0  0  0  0  0  0
    5.4940   -7.5540   18.0310   C 0  0  0  0  0  0  0  0  0  0  0  0
    4.9890   -8.1900   19.2030   C 0  0  0  0  0  0  0  0  0  0  0  0
    4.2530   -9.4010   19.0710   C 0  0  0  0  0  0  0  0  0  0  0  0
    3.2970  -11.1710   17.6250   C 0  0  0  0  0  0  0  0  0  0  0  0
    3.0990  -11.6920   16.3080   C 0  0  0  0  0  0  0  0  0  0  0  0
    3.6240  -11.0180   15.1610   C 0  0  0  0  0  0  0  0  0  0  0  0
    4.3550   -9.8100   15.3140   C 0  0  0  0  0  0  0  0  0  0  0  0
    4.0280   -9.9610   17.7850   C 0  0  0  0  0  0  0  0  0  0  0  0
    4.5540   -9.2900   16.6180   C 0  0  0  0  0  0  0  0  0  0  0  0
    6.5870   -5.8140   16.8730   N 0  0  0  0  0  0  0  0  0  0  0  0
    7.3170   -4.5540   16.7880   C 0  0  0  0  0  0  0  0  0  0  0  0
    6.5510   -3.6020   15.8840   C 0  0  0  0  0  0  0  0  0  0  0  0
    6.6440   -3.6470   14.6570   O 0  0  0  0  0  0  0  0  0  0  0  0
    8.7290   -4.7980   16.2590   C 0  0  0  0  0  0  0  0  0  0  0  0
    9.5930   -5.5240   17.2680   C 0  0  0  0  0  0  0  0  0  0  0  0
    9.9360   -4.9700   18.3110   O 0  0  0  0  0  0  0  0  0  0  0  0
    9.9270   -6.7750   16.9790   N 0  0  0  0  0  0  0  0  0  0  0  0
    5.5280   -0.3560   16.0890   C 0  0  0  0  0  0  0  0  0  0  0  0
    5.2510   -0.0220   17.4480   O 0  0  0  0  0  0  0  0  0  0  0  0
    4.9420   -1.7690   15.7900   C 0  0  0  0  0  0  0  0  0  0  0  0
    5.7570   -2.7290   16.5180   N 0  0  0  0  0  0  0  0  0  0  0  0
    3.4740   -1.9500   16.2700   C 0  0  0  0  0  0  0  0  0  0  0  0
    2.9750   -3.3770   16.1560   C 0  0  0  0  0  0  0  0  0  0  0  0
    2.6020   -3.8890   14.9150   C 0  0  0  0  0  0  0  0  0  0  0  0
    2.9360   -4.1720   17.3010   C 0  0  0  0  0  0  0  0  0  0  0  0
    2.1910   -5.2140   14.8250   C 0  0  0  0  0  0  0  0  0  0  0  0
    2.5240   -5.4880   17.1920   C 0  0  0  0  0  0  0  0  0  0  0  0
    2.1540   -6.0080   15.9570   C 0  0  0  0  0  0  0  0  0  0  0  0
    5.8580    0.7960   13.8900   N 0  0  0  0  0  0  0  0  0  0  0  0
    5.1150    0.8010   15.1620   C 0  0  0  0  0  0  0  0  0  0  0  0
    5.0650    1.3600   12.7430   C 0  0  0  0  0  0  0  0  0  0  0  0
    3.7830    0.6030   12.4200   C 0  0  0  0  0  0  0  0  0  0  0  0
    3.8100   -0.6350   12.4100   O 0  0  0  0  0  0  0  0  0  0  0  0
    5.9010    1.3680   11.4480   C 0  0  0  0  0  0  0  0  0  0  0  0
    7.2060    2.1460   11.6760   C 0  0  0  0  0  0  0  0  0  0  0  0
    8.0850    2.1600   10.4280   C 0  0  0  0  0  0  0  0  0  0  0  0
    8.7710    0.7960   10.1730   C 0  0  0  0  0  0  0  0  0  0  0  0
    9.5990    0.3010   11.3770   C 0  0  0  0  0  0  0  0  0  0  0  0
    8.6760    0.2070   12.6040   C 0  0  0  0  0  0  0  0  0  0  0  0
    8.0360    1.5770   12.9090   C 0  0  0  0  0  0  0  0  0  0  0  0
    7.1100    1.5340   14.1370   C 0  0  0  0  0  0  0  0  0  0  0  0
    2.7180    1.4080   12.2200   N 0  0  0  0  0  0  0  0  0  0  0  0
    1.3630    1.0010   11.8580   C 0  0  0  0  0  0  0  0  0  0  0  0
    0.5760    2.2860   11.7650   C 0  0  0  0  0  0  0  0  0  0  0  0
    1.3030    0.3510   10.4960   C 0  0  0  0  0  0  0  0  0  0  0  0
    0.7130    0.1090   12.9320   C 0  0  0  0  0  0  0  0  0  0  0  0
  2  1  2  0  0  0  0
  1  4  1  0  0  0  0
  3  4  2  0  0  0  0
  3 12  1  0  0  0  0
  4  5  1  0  0  0  0
  5  6  2  0  0  0  0
  6 11  1  0  0  0  0
 11  7  2  0  0  0  0
 11 12  1  0  0  0  0
  7  8  1  0  0  0  0
  8  9  2  0  0  0  0
  9 10  1  0  0  0  0
 10 12  2  0  0  0  0
 13 14  1  0  0  0  0
 14 15  1  0  0  0  0
 14 17  1  0  0  0  0
 15 16  2  0  0  0  0
 17 18  1  0  0  0  0
 18 19  2  0  0  0  0
 18 20  1  0  0  0  0
 21 22  1  0  0  0  0
 21 23  1  0  0  0  0
 23 24  1  0  0  0  0
 23 25  1  0  0  0  0
 25 26  1  0  0  0  0
 26 27  2  0  0  0  0
 26 28  1  0  0  0  0
 27 29  1  0  0  0  0
 28 30  2  0  0  0  0
 29 31  2  0  0  0  0
 30 31  1  0  0  0  0
 32 33  1  0  0  0  0
 32 34  1  0  0  0  0
 32 44  1  0  0  0  0
 34 35  1  0  0  0  0
 34 37  1  0  0  0  0
 35 36  2  0  0  0  0
 37 38  1  0  0  0  0
 38 39  1  0  0  0  0
 38 43  1  0  0  0  0
 39 40  1  0  0  0  0
 40 41  1  0  0  0  0
 41 42  1  0  0  0  0
 42 43  1  0  0  0  0
 43 44  1  0  0  0  0
 45 46  1  0  0  0  0
 46 47  1  0  0  0  0
 46 48  1  0  0  0  0
 46 49  1  0  0  0  0
  1 13  1  0  0  0  0
 15 24  1  0  0  0  0
 21 33  1  0  0  0  0
 35 45  1  0  0  0  0
M  END
>  <InstanceId>
3EL4_ROC_A_100

>  <ChemCompId>
ROC

>  <PdbId>
3EL4

>  <ChainId>
A

>  <ResidueNumber>
100

>  <InsertionCode>


>  <Model>
1

>  <AltIds>


>  <MissingHeavyAtoms>
0

>  <ObservedFormula>
C38 N6 O5

>  <Name>
(2S)-N-[(2S,3R)-4-[(2S,3S,4aS,8aS)-3-(tert-butylcarbamoyl)-3,4,4a,5,6,7,8,8a-octahydro-1H-isoquinolin-2-yl]-3-hydroxy-1 -phenyl-butan-2-yl]-2-(quinolin-2-ylcarbonylamino)butanediamide

>  <SystematicName>
(2S)-N-[(2S,3R)-4-[(2S,3S,4aS,8aS)-3-(tert-butylcarbamoyl)-3,4,4a,5,6,7,8,8a-octahydro-1H-isoquinolin-2-yl]-3-hydroxy-1-phenyl-butan-2-yl]-2-(quinolin-2-ylcarbonylamino)butanediamide

>  <Synonyms>
Fortovase; SAQUINAVIR; RO 31-8959

>  <Type>
peptide-like

>  <Formula>
C38 H50 N6 O5

>  <MolecularWeight>
670.841

>  <ModifiedDate>
2020-07-02

>  <Parent>


>  <OneLetterCode>


>  <SubcomponentList>
QNC ASN HP0 NTB

>  <AmbiguousFlag>
N

>  <InChI>
InChI=1S/C38H50N6O5/c1-38(2,3)43-37(49)32-20-26-14-7-8-15-27(26)22-44(32)23-33(45)30(19-24-11-5-4-6-12-24)41-36(48)31(21-34(39)46)42-35(47)29-18-17-25-13-9-10-16-28(25)40-29/h4-6,9-13,16-18,26-27,30-33,45H,7-8,14-15,19-23H2,1-3H3,(H2,39,46)(H,41,48)(H,42,47)(H,43,49)/t26-,27+,30-,31-,32-,33+/m0/s1

>  <InChIKey>
QWAXKHKRTORLEM-UGJKXSETSA-N

>  <SMILES>
CC(C)(C)NC(=O)[C@@H]1C[C@@H]2CCCC[C@@H]2C[N@]1C[C@H]([C@H](Cc3ccccc3)NC(=O)[C@H](CC(=O)N)NC(=O)c4ccc5ccccc5n4)O

$$$$
