3QLM_PLM_A_127
  RCSB PDB08012020153D
Coordinates from PDB:3QLM:A:127 Model:1 without hydrogens
 18 17  0  0  0  0            999 V2000
  -30.8270   17.1690  -12.8580   C 0  0  0  0  0  0  0  0  0  0  0  0
  -30.8180   15.9720  -13.2610   O 0  0  0  0  0  0  0  0  0  0  0  0
  -29.8330   17.9370  -12.7330   O 0  0  0  0  0  0  0  0  0  0  0  0
  -32.1850   17.7510  -12.4930   C 0  0  0  0  0  0  0  0  0  0  0  0
  -32.5680   17.3070  -11.1040   C 0  0  0  0  0  0  0  0  0  0  0  0
  -33.0890   18.5130  -10.3500   C 0  0  0  0  0  0  0  0  0  0  0  0
  -32.2670   18.7500   -9.0620   C 0  0  0  0  0  0  0  0  0  0  0  0
  -32.6850   17.7560   -7.9530   C 0  0  0  0  0  0  0  0  0  0  0  0
  -33.9560   18.2000   -7.2040   C 0  0  0  0  0  0  0  0  0  0  0  0
  -35.1320   17.1750   -7.2810   C 0  0  0  0  0  0  0  0  0  0  0  0
  -36.0860   17.2120   -8.5370   C 0  0  0  0  0  0  0  0  0  0  0  0
  -36.7300   18.5670   -8.8890   C 0  0  0  0  0  0  0  0  0  0  0  0
  -38.2380   18.4120   -8.9770   C 0  0  0  0  0  0  0  0  0  0  0  0
  -38.8060   17.6600   -7.7780   C 0  0  0  0  0  0  0  0  0  0  0  0
  -38.0720   17.9210   -6.4440   C 0  0  0  0  0  0  0  0  0  0  0  0
  -37.1820   19.1790   -6.4310   C 0  0  0  0  0  0  0  0  0  0  0  0
  -35.9150   18.9940   -5.6210   C 0  0  0  0  0  0  0  0  0  0  0  0
  -36.1760   18.2440   -4.3320   C 0  0  0  0  0  0  0  0  0  0  0  0
  1  2  1  0  0  0  0
  1  3  2  0  0  0  0
  1  4  1  0  0  0  0
  4  5  1  0  0  0  0
  5  6  1  0  0  0  0
  6  7  1  0  0  0  0
  7  8  1  0  0  0  0
  8  9  1  0  0  0  0
  9 10  1  0  0  0  0
 10 11  1  0  0  0  0
 11 12  1  0  0  0  0
 12 13  1  0  0  0  0
 13 14  1  0  0  0  0
 14 15  1  0  0  0  0
 15 16  1  0  0  0  0
 16 17  1  0  0  0  0
 17 18  1  0  0  0  0
M  END
>  <InstanceId>
3QLM_PLM_A_127

>  <ChemCompId>
PLM

>  <PdbId>
3QLM

>  <ChainId>
A

>  <ResidueNumber>
127

>  <InsertionCode>


>  <Model>
1

>  <AltIds>


>  <MissingHeavyAtoms>
0

>  <ObservedFormula>
C16 O2

>  <Name>
PALMITIC ACID

>  <SystematicName>
hexadecanoic acid

>  <Synonyms>


>  <Type>
NON-POLYMER

>  <Formula>
C16 H32 O2

>  <MolecularWeight>
256.424

>  <ModifiedDate>
2011-06-04

>  <Parent>


>  <OneLetterCode>


>  <SubcomponentList>


>  <AmbiguousFlag>
N

>  <InChI>
InChI=1S/C16H32O2/c1-2-3-4-5-6-7-8-9-10-11-12-13-14-15-16(17)18/h2-15H2,1H3,(H,17,18)

>  <InChIKey>
IPCSVZSSVZVIGE-UHFFFAOYSA-N

>  <SMILES>
CCCCCCCCCCCCCCCC(=O)O

$$$$
