4FEV_PP1_A_302
  RCSB PDB08012021423D
Coordinates from PDB:4FEV:A:302 Model:1 without hydrogens
 21 23  0  0  0  0            999 V2000
  -21.0340  -27.1620  -17.7210   N 0  0  0  0  0  0  0  0  0  0  0  0
  -21.8970  -25.1380  -20.5680   C 0  0  0  0  0  0  0  0  0  0  0  0
  -21.5400  -25.3810  -19.3220   N 0  0  0  0  0  0  0  0  0  0  0  0
  -21.3720  -26.6490  -18.9010   C 0  0  0  0  0  0  0  0  0  0  0  0
  -21.5620  -27.7160  -19.7680   C 0  0  0  0  0  0  0  0  0  0  0  0
  -21.9370  -27.4060  -21.0840   C 0  0  0  0  0  0  0  0  0  0  0  0
  -22.0890  -26.1270  -21.4220   N 0  0  0  0  0  0  0  0  0  0  0  0
  -20.9910  -28.3990  -17.7430   N 0  0  0  0  0  0  0  0  0  0  0  0
  -21.2720  -28.8410  -18.9770   C 0  0  0  0  0  0  0  0  0  0  0  0
  -22.1590  -28.2980  -22.0510   N 0  0  0  0  0  0  0  0  0  0  0  0
  -21.3590  -30.1980  -19.3170   C 0  0  0  0  0  0  0  0  0  0  0  0
  -21.5500  -30.6650  -20.6120   C 0  0  0  0  0  0  0  0  0  0  0  0
  -21.6220  -32.0240  -20.8940   C 0  0  0  0  0  0  0  0  0  0  0  0
  -21.4940  -32.9430  -19.8660   C 0  0  0  0  0  0  0  0  0  0  0  0
  -21.2920  -32.4970  -18.5630   C 0  0  0  0  0  0  0  0  0  0  0  0
  -21.2110  -31.1330  -18.2960   C 0  0  0  0  0  0  0  0  0  0  0  0
  -21.5720  -34.4390  -20.1740   C 0  0  0  0  0  0  0  0  0  0  0  0
  -20.7230  -26.3530  -16.5060   C 0  0  0  0  0  0  0  0  0  0  0  0
  -20.3370  -27.3330  -15.3970   C 0  0  0  0  0  0  0  0  0  0  0  0
  -19.5340  -25.4270  -16.8210   C 0  0  0  0  0  0  0  0  0  0  0  0
  -21.9560  -25.5330  -16.1060   C 0  0  0  0  0  0  0  0  0  0  0  0
  1  4  1  0  0  0  0
  1  8  1  0  0  0  0
  1 18  1  0  0  0  0
  2  3  2  0  0  0  0
  2  7  1  0  0  0  0
  3  4  1  0  0  0  0
  4  5  2  0  0  0  0
  5  6  1  0  0  0  0
  5  9  1  0  0  0  0
  6  7  2  0  0  0  0
  6 10  1  0  0  0  0
  8  9  2  0  0  0  0
  9 11  1  0  0  0  0
 11 12  2  0  0  0  0
 11 16  1  0  0  0  0
 12 13  1  0  0  0  0
 13 14  2  0  0  0  0
 14 15  1  0  0  0  0
 14 17  1  0  0  0  0
 15 16  2  0  0  0  0
 18 19  1  0  0  0  0
 18 20  1  0  0  0  0
 18 21  1  0  0  0  0
M  END
>  <InstanceId>
4FEV_PP1_A_302

>  <ChemCompId>
PP1

>  <PdbId>
4FEV

>  <ChainId>
A

>  <ResidueNumber>
302

>  <InsertionCode>


>  <Model>
1

>  <AltIds>


>  <MissingHeavyAtoms>
0

>  <ObservedFormula>
C16 N5

>  <Name>
1-TER-BUTYL-3-P-TOLYL-1H-PYRAZOLO[3,4-D]PYRIMIDIN-4-YLAMINE

>  <SystematicName>
1-tert-butyl-3-(4-methylphenyl)pyrazolo[4,5-e]pyrimidin-4-amine

>  <Synonyms>


>  <Type>
NON-POLYMER

>  <Formula>
C16 H19 N5

>  <MolecularWeight>
281.356

>  <ModifiedDate>
2011-06-04

>  <Parent>


>  <OneLetterCode>


>  <SubcomponentList>


>  <AmbiguousFlag>
N

>  <InChI>
InChI=1S/C16H19N5/c1-10-5-7-11(8-6-10)13-12-14(17)18-9-19-15(12)21(20-13)16(2,3)4/h5-9H,1-4H3,(H2,17,18,19)

>  <InChIKey>
ZVPDNRVYHLRXLX-UHFFFAOYSA-N

>  <SMILES>
Cc1ccc(cc1)c2c3c(ncnc3n(n2)C(C)(C)C)N

$$$$
