6FYZ_EBE_A_2001
  RCSB PDB08022004443D
Coordinates from PDB:6FYZ:A:2001 Model:1 without hydrogens
 25 27  0  0  0  0            999 V2000
   -8.1590   -2.8560   11.6720   C 0  0  0  0  0  0  0  0  0  0  0  0
   -7.3730   -2.1720   12.5920   C 0  0  0  0  0  0  0  0  0  0  0  0
   -7.4510   -2.4230   13.9730   C 0  0  0  0  0  0  0  0  0  0  0  0
   -6.5890   -1.6740   14.9690   C 0  0  0  0  0  0  0  0  0  0  0  0
   -5.5300   -0.8350   14.5650   C 0  0  0  0  0  0  0  0  0  0  0  0
   -9.0630   -3.8250   12.0870   C 0  0  0  0  0  0  0  0  0  0  0  0
   -9.1540   -4.0900   13.4540   C 0  0  0  0  0  0  0  0  0  0  0  0
   -5.0020   -0.3060   16.7910   C 0  0  0  0  0  0  0  0  0  0  0  0
   -8.3660   -3.4030   14.3750   C 0  0  0  0  0  0  0  0  0  0  0  0
   -8.3350   -6.5620   11.4530   C 0  0  0  0  0  0  0  0  0  0  0  0
   -6.7940   -1.7680   16.3590   C 0  0  0  0  0  0  0  0  0  0  0  0
   -9.8840   -4.5500   11.0730   C 0  0  0  0  0  0  0  0  0  0  0  0
   -9.3670   -5.9180   10.7490   C 0  0  0  0  0  0  0  0  0  0  0  0
   -7.9260   -7.8440   11.1000   C 0  0  0  0  0  0  0  0  0  0  0  0
   -4.7760   -0.1800   15.4680   N 0  0  0  0  0  0  0  0  0  0  0  0
  -11.3200   -4.6530   11.5370   C 0  0  0  0  0  0  0  0  0  0  0  0
   -4.1520    0.4450   17.7830   C 0  0  0  0  0  0  0  0  0  0  0  0
  -11.7380   -5.6720   12.0710   O 0  0  0  0  0  0  0  0  0  0  0  0
  -12.1100   -3.5980   11.3320   N 0  0  0  0  0  0  0  0  0  0  0  0
  -13.4420   -3.6290   11.7440   O 0  0  0  0  0  0  0  0  0  0  0  0
   -8.5320   -8.5030   10.0400   C 0  0  0  0  0  0  0  0  0  0  0  0
   -9.5620   -7.8830    9.3450   C 0  0  0  0  0  0  0  0  0  0  0  0
   -9.9730   -6.6020    9.6900   C 0  0  0  0  0  0  0  0  0  0  0  0
  -10.9830   -6.0390    8.9880   F 0  0  0  0  0  0  0  0  0  0  0  0
   -6.0120   -1.0950   17.2210   N 0  0  0  0  0  0  0  0  0  0  0  0
 24 23  1  0  0  0  0
 22 23  2  0  0  0  0
 22 21  1  0  0  0  0
 23 13  1  0  0  0  0
 21 14  2  0  0  0  0
 13 12  1  0  0  0  0
 13 10  2  0  0  0  0
 12 16  1  0  0  0  0
 12  6  1  0  0  0  0
 14 10  1  0  0  0  0
 19 16  1  0  0  0  0
 19 20  1  0  0  0  0
 16 18  2  0  0  0  0
  1  6  2  0  0  0  0
  1  2  1  0  0  0  0
  6  7  1  0  0  0  0
  2  3  2  0  0  0  0
  7  9  2  0  0  0  0
  3  9  1  0  0  0  0
  3  4  1  0  0  0  0
  5  4  2  0  0  0  0
  5 15  1  0  0  0  0
  4 11  1  0  0  0  0
 15  8  2  0  0  0  0
 11 25  2  0  0  0  0
  8 25  1  0  0  0  0
  8 17  1  0  0  0  0
M  END
>  <InstanceId>
6FYZ_EBE_A_2001

>  <ChemCompId>
EBE

>  <PdbId>
6FYZ

>  <ChainId>
A

>  <ResidueNumber>
2001

>  <InsertionCode>


>  <Model>
1

>  <AltIds>


>  <MissingHeavyAtoms>
0

>  <ObservedFormula>
C19 N3 O2 F

>  <Name>
(2~{S})-2-(2-fluorophenyl)-2-[4-(2-methylpyrimidin-5-yl)phenyl]-~{N}-oxidanyl-ethanamide

>  <SystematicName>
(2~{S})-2-(2-fluorophenyl)-2-[4-(2-methylpyrimidin-5-yl)phenyl]-~{N}-oxidanyl-ethanamide

>  <Synonyms>


>  <Type>
NON-POLYMER

>  <Formula>
C19 H16 F N3 O2

>  <MolecularWeight>
337.348

>  <ModifiedDate>
2018-11-30

>  <Parent>


>  <OneLetterCode>


>  <SubcomponentList>


>  <AmbiguousFlag>
N

>  <InChI>
InChI=1S/C19H16FN3O2/c1-12-21-10-15(11-22-12)13-6-8-14(9-7-13)18(19(24)23-25)16-4-2-3-5-17(16)20/h2-11,18,25H,1H3,(H,23,24)/t18-/m0/s1

>  <InChIKey>
SFXMVIQZYOMYOF-SFHVURJKSA-N

>  <SMILES>
Cc1ncc(cn1)c2ccc(cc2)[C@@H](c3ccccc3F)C(=O)NO

$$$$
