3O99_K13_A_200
  RCSB PDB08012019593D
Coordinates from PDB:3O99:A:200 Model:1 without hydrogens
 39 42  0  0  0  0            999 V2000
   14.2900   34.9560   18.1170   N 0  0  0  0  0  0  0  0  0  0  0  0
   15.1850   34.3770   17.2940   C 0  0  0  0  0  0  0  0  0  0  0  0
   16.2760   35.0950   16.7970   C 0  0  0  0  0  0  0  0  0  0  0  0
   17.1690   34.4450   15.9350   C 0  0  0  0  0  0  0  0  0  0  0  0
   16.9870   33.1050   15.5770   C 0  0  0  0  0  0  0  0  0  0  0  0
   15.8960   32.4230   16.0900   C 0  0  0  0  0  0  0  0  0  0  0  0
   14.9950   33.0570   16.9390   C 0  0  0  0  0  0  0  0  0  0  0  0
   18.0160   32.3170   14.6060   S 0  0  0  0  0  0  0  0  0  0  0  0
   17.3560   31.2410   13.9410   O 0  0  0  0  0  0  0  0  0  0  0  0
   18.5970   33.2130   13.6530   O 0  0  0  0  0  0  0  0  0  0  0  0
   19.2770   31.7200   15.4300   N 0  0  0  0  0  0  0  0  0  0  0  0
   19.9720   32.7460   16.2460   C 0  0  0  0  0  0  0  0  0  0  0  0
   21.4690   32.4510   16.3100   C 0  0  0  0  0  0  0  0  0  0  0  0
   22.1470   32.4360   14.9330   C 0  0  0  0  0  0  0  0  0  0  0  0
   22.1430   33.4300   17.2830   C 0  0  0  0  0  0  0  0  0  0  0  0
   18.9850   30.4770   16.1570   C 0  0  0  0  0  0  0  0  0  0  0  0
   19.9100   29.3860   15.6070   C 0  0  0  0  0  0  0  0  0  0  0  0
   22.1510   34.8520   16.7800   C 0  0  0  0  0  0  0  0  0  0  0  0
   19.8660   28.2590   16.4930   O 0  0  0  0  0  0  0  0  0  0  0  0
   19.5700   28.9530   14.1740   C 0  0  0  0  0  0  0  0  0  0  0  0
   20.6780   28.1510   13.7030   N 0  0  0  0  0  0  0  0  0  0  0  0
   21.5550   28.5010   12.7730   C 0  0  0  0  0  0  0  0  0  0  0  0
   21.5970   29.5460   12.1620   O 0  0  0  0  0  0  0  0  0  0  0  0
   22.5340   27.4800   12.5300   O 0  0  0  0  0  0  0  0  0  0  0  0
   23.3880   27.5350   11.4060   C 0  0  0  0  0  0  0  0  0  0  0  0
   24.6900   26.9110   11.8740   C 0  0  0  0  0  0  0  0  0  0  0  0
   24.5150   25.5030   11.6570   O 0  0  0  0  0  0  0  0  0  0  0  0
   23.5510   25.2830   10.6260   C 0  0  0  0  0  0  0  0  0  0  0  0
   22.4990   24.4350   11.0710   O 0  0  0  0  0  0  0  0  0  0  0  0
   21.2500   25.1230   11.1120   C 0  0  0  0  0  0  0  0  0  0  0  0
   21.4290   26.3300   10.2060   C 0  0  0  0  0  0  0  0  0  0  0  0
   22.9180   26.6200   10.2920   C 0  0  0  0  0  0  0  0  0  0  0  0
   18.2670   28.1530   14.0400   C 0  0  0  0  0  0  0  0  0  0  0  0
   18.1720   26.4220   12.1900   C 0  0  0  0  0  0  0  0  0  0  0  0
   17.9980   26.0690   10.8630   C 0  0  0  0  0  0  0  0  0  0  0  0
   17.6470   27.0140    9.9130   C 0  0  0  0  0  0  0  0  0  0  0  0
   17.5150   28.3280   10.3130   C 0  0  0  0  0  0  0  0  0  0  0  0
   17.6940   28.6800   11.6430   C 0  0  0  0  0  0  0  0  0  0  0  0
   18.0380   27.7420   12.5950   C 0  0  0  0  0  0  0  0  0  0  0  0
  1  2  1  0  0  0  0
  2  3  2  0  0  0  0
  2  7  1  0  0  0  0
  3  4  1  0  0  0  0
  4  5  2  0  0  0  0
  5  6  1  0  0  0  0
  5  8  1  0  0  0  0
  6  7  2  0  0  0  0
  8  9  2  0  0  0  0
  8 10  2  0  0  0  0
  8 11  1  0  0  0  0
 11 12  1  0  0  0  0
 11 16  1  0  0  0  0
 12 13  1  0  0  0  0
 13 14  1  0  0  0  0
 13 15  1  0  0  0  0
 15 18  1  0  0  0  0
 16 17  1  0  0  0  0
 17 19  1  0  0  0  0
 17 20  1  0  0  0  0
 20 21  1  0  0  0  0
 20 33  1  0  0  0  0
 21 22  1  0  0  0  0
 22 23  2  0  0  0  0
 22 24  1  0  0  0  0
 24 25  1  0  0  0  0
 25 26  1  0  0  0  0
 25 32  1  0  0  0  0
 26 27  1  0  0  0  0
 27 28  1  0  0  0  0
 28 29  1  0  0  0  0
 28 32  1  0  0  0  0
 29 30  1  0  0  0  0
 30 31  1  0  0  0  0
 31 32  1  0  0  0  0
 33 39  1  0  0  0  0
 34 35  2  0  0  0  0
 34 39  1  0  0  0  0
 35 36  1  0  0  0  0
 36 37  2  0  0  0  0
 37 38  1  0  0  0  0
 38 39  2  0  0  0  0
M  END
>  <InstanceId>
3O99_K13_A_200

>  <ChemCompId>
K13

>  <PdbId>
3O99

>  <ChainId>
A

>  <ResidueNumber>
200

>  <InsertionCode>


>  <Model>
1

>  <AltIds>


>  <MissingHeavyAtoms>
0

>  <ObservedFormula>
C28 N3 O7 S

>  <Name>
(3R,3aS,6aR)-hexahydrofuro[2,3-b]furan-3-yl [(1S,2R)-3-{[(4-aminophenyl)sulfonyl][(2S)-2-methylbutyl]amino}-1-benzyl-2-hydroxypropyl]carbamate

>  <SystematicName>
[(3R,3aS,6aR)-2,3,3a,4,5,6a-hexahydrofuro[2,3-b]furan-3-yl] N-[(2S,3R)-4-[(4-aminophenyl)sulfonyl-[(2S)-2-methylbutyl]amino]-3-hydroxy-1-phenyl-butan-2-yl]carbamate

>  <Synonyms>


>  <Type>
NON-POLYMER

>  <Formula>
C28 H39 N3 O7 S

>  <MolecularWeight>
561.69

>  <ModifiedDate>
2011-08-05

>  <Parent>


>  <OneLetterCode>


>  <SubcomponentList>


>  <AmbiguousFlag>
N

>  <InChI>
InChI=1S/C28H39N3O7S/c1-3-19(2)16-31(39(34,35)22-11-9-21(29)10-12-22)17-25(32)24(15-20-7-5-4-6-8-20)30-28(33)38-26-18-37-27-23(26)13-14-36-27/h4-12,19,23-27,32H,3,13-18,29H2,1-2H3,(H,30,33)/t19-,23-,24-,25+,26-,27+/m0/s1

>  <InChIKey>
NKLRQHQHYBFPSD-DRMLODCJSA-N

>  <SMILES>
CC[C@H](C)C[N@@](C[C@H]([C@H](Cc1ccccc1)NC(=O)O[C@H]2CO[C@@H]3[C@H]2CCO3)O)S(=O)(=O)c4ccc(cc4)N

$$$$
