4CR5_0TU_A_1489
  RCSB PDB08012021243D
Coordinates from PDB:4CR5:A:1489 Model:1 without hydrogens
 12 13  0  0  0  0            999 V2000
  -20.6930  -45.1470  -12.4050  Cl 0  0  0  0  0  0  0  0  0  0  0  0
  -18.5520  -48.4440  -11.6490   C 0  0  0  0  0  0  0  0  0  0  0  0
  -18.9290  -47.1330  -11.8710   C 0  0  0  0  0  0  0  0  0  0  0  0
  -21.2170  -47.7870  -12.1330   C 0  0  0  0  0  0  0  0  0  0  0  0
  -20.8440  -49.1010  -11.9210   C 0  0  0  0  0  0  0  0  0  0  0  0
  -19.5240  -49.4240  -11.6910   C 0  0  0  0  0  0  0  0  0  0  0  0
  -20.2490  -46.8040  -12.1150   C 0  0  0  0  0  0  0  0  0  0  0  0
  -21.8460  -50.1490  -11.9410   C 0  0  0  0  0  0  0  0  0  0  0  0
  -21.5340  -51.4340  -11.7370   C 0  0  0  0  0  0  0  0  0  0  0  0
  -20.1120  -51.7950  -11.4920   C 0  0  0  0  0  0  0  0  0  0  0  0
  -19.1810  -50.7650  -11.4780   N 0  0  0  0  0  0  0  0  0  0  0  0
  -19.8360  -52.9760  -11.3140   O 0  0  0  0  0  0  0  0  0  0  0  0
  1  7  1  0  0  0  0
  2  3  2  0  0  0  0
  2  6  1  0  0  0  0
  3  7  1  0  0  0  0
  4  5  1  0  0  0  0
  4  7  2  0  0  0  0
  5  6  2  0  0  0  0
  5  8  1  0  0  0  0
  6 11  1  0  0  0  0
  8  9  2  0  0  0  0
  9 10  1  0  0  0  0
 10 11  1  0  0  0  0
 10 12  2  0  0  0  0
M  END
>  <InstanceId>
4CR5_0TU_A_1489

>  <ChemCompId>
0TU

>  <PdbId>
4CR5

>  <ChainId>
A

>  <ResidueNumber>
1489

>  <InsertionCode>


>  <Model>
1

>  <AltIds>


>  <MissingHeavyAtoms>
0

>  <ObservedFormula>
C9 N O Cl

>  <Name>
6-chloroquinolin-2(1H)-one

>  <SystematicName>
6-chloranyl-1H-quinolin-2-one

>  <Synonyms>


>  <Type>
NON-POLYMER

>  <Formula>
C9 H6 Cl N O

>  <MolecularWeight>
179.603

>  <ModifiedDate>
2015-02-06

>  <Parent>


>  <OneLetterCode>


>  <SubcomponentList>


>  <AmbiguousFlag>
N

>  <InChI>
InChI=1S/C9H6ClNO/c10-7-2-3-8-6(5-7)1-4-9(12)11-8/h1-5H,(H,11,12)

>  <InChIKey>
OJEBWFGRUPIVSD-UHFFFAOYSA-N

>  <SMILES>
c1cc2c(cc1Cl)C=CC(=O)N2

$$$$
