4TKB_DAO_A_200
  RCSB PDB08012023143D
Coordinates from PDB:4TKB:A:200 Model:1 without hydrogens
 14 13  0  0  0  0            999 V2000
   -6.8750   15.8900   15.2370   O 0  0  0  0  0  0  0  0  0  0  0  0
   -4.8000   16.2370   15.9020   O 0  0  0  0  0  0  0  0  0  0  0  0
   -5.7930   16.5010   15.1730   C 0  0  0  0  0  0  0  0  0  0  0  0
   -5.6220   17.5800   14.1290   C 0  0  0  0  0  0  0  0  0  0  0  0
   -6.8230   17.9990   13.3800   C 0  0  0  0  0  0  0  0  0  0  0  0
   -6.6520   19.1670   12.4310   C 0  0  0  0  0  0  0  0  0  0  0  0
   -7.9430   19.6980   11.8500   C 0  0  0  0  0  0  0  0  0  0  0  0
   -7.7740   20.7340   10.7540   C 0  0  0  0  0  0  0  0  0  0  0  0
   -6.9740   21.9300   11.1190   C 0  0  0  0  0  0  0  0  0  0  0  0
   -7.5380   22.7370   12.2400   C 0  0  0  0  0  0  0  0  0  0  0  0
   -6.6800   23.9130   12.6480   C 0  0  0  0  0  0  0  0  0  0  0  0
   -7.2530   24.7660   13.7870   C 0  0  0  0  0  0  0  0  0  0  0  0
   -7.4200   24.0810   15.1210   C 0  0  0  0  0  0  0  0  0  0  0  0
   -7.9370   25.0820   16.1040   C 0  0  0  0  0  0  0  0  0  0  0  0
  1  3  2  0  0  0  0
  2  3  1  0  0  0  0
  3  4  1  0  0  0  0
  4  5  1  0  0  0  0
  5  6  1  0  0  0  0
  6  7  1  0  0  0  0
  7  8  1  0  0  0  0
  8  9  1  0  0  0  0
  9 10  1  0  0  0  0
 10 11  1  0  0  0  0
 11 12  1  0  0  0  0
 12 13  1  0  0  0  0
 13 14  1  0  0  0  0
M  END
>  <InstanceId>
4TKB_DAO_A_200

>  <ChemCompId>
DAO

>  <PdbId>
4TKB

>  <ChainId>
A

>  <ResidueNumber>
200

>  <InsertionCode>


>  <Model>
1

>  <AltIds>


>  <MissingHeavyAtoms>
0

>  <ObservedFormula>
C12 O2

>  <Name>
LAURIC ACID

>  <SystematicName>
dodecanoic acid

>  <Synonyms>


>  <Type>
NON-POLYMER

>  <Formula>
C12 H24 O2

>  <MolecularWeight>
200.318

>  <ModifiedDate>
2011-06-04

>  <Parent>


>  <OneLetterCode>


>  <SubcomponentList>


>  <AmbiguousFlag>
N

>  <InChI>
InChI=1S/C12H24O2/c1-2-3-4-5-6-7-8-9-10-11-12(13)14/h2-11H2,1H3,(H,13,14)

>  <InChIKey>
POULHZVOKOAJMA-UHFFFAOYSA-N

>  <SMILES>
CCCCCCCCCCCC(=O)O

$$$$
