5CAP_4ZH_A_1103
  RCSB PDB08022000563D
Coordinates from PDB:5CAP:A:1103 Model:1 without hydrogens
 29 31  0  0  0  0            999 V2000
  -54.2690    1.3930  -21.0150   C 0  0  0  0  0  0  0  0  0  0  0  0
  -55.2370    2.3870  -21.2280   C 0  0  0  0  0  0  0  0  0  0  0  0
  -52.2580   -1.2760  -22.4910   C 0  0  0  0  0  0  0  0  0  0  0  0
  -55.4830    1.7980  -23.4800   C 0  0  0  0  0  0  0  0  0  0  0  0
  -54.4940    0.8090  -23.3500   C 0  0  0  0  0  0  0  0  0  0  0  0
  -53.8870    0.5840  -22.1080   C 0  0  0  0  0  0  0  0  0  0  0  0
  -52.6970   -2.7290  -22.3600   C 0  0  0  0  0  0  0  0  0  0  0  0
  -50.8160   -0.9720  -22.9060   C 0  0  0  0  0  0  0  0  0  0  0  0
  -53.5400    0.9720  -19.9470   N 0  0  0  0  0  0  0  0  0  0  0  0
  -51.8030   -0.6690  -19.3070   C 0  0  0  0  0  0  0  0  0  0  0  0
  -52.7500   -0.0060  -20.2890   C 0  0  0  0  0  0  0  0  0  0  0  0
  -55.7980    2.5480  -22.4190   N 0  0  0  0  0  0  0  0  0  0  0  0
  -52.9320   -0.2920  -21.6260   N 0  0  0  0  0  0  0  0  0  0  0  0
  -56.1430    2.0630  -24.7050   N 0  0  0  0  0  0  0  0  0  0  0  0
  -56.1600    1.2080  -25.7970   C 0  0  0  0  0  0  0  0  0  0  0  0
  -57.2130    1.1600  -26.7440   C 0  0  0  0  0  0  0  0  0  0  0  0
  -57.1070    0.2090  -27.7750   C 0  0  0  0  0  0  0  0  0  0  0  0
  -56.0250   -0.6060  -27.8560   N 0  0  0  0  0  0  0  0  0  0  0  0
  -55.0790   -0.5330  -26.9170   C 0  0  0  0  0  0  0  0  0  0  0  0
  -55.1370    0.3750  -25.9490   N 0  0  0  0  0  0  0  0  0  0  0  0
  -53.9140   -1.2090  -26.9400   O 0  0  0  0  0  0  0  0  0  0  0  0
  -53.7850   -2.5970  -27.1580   C 0  0  0  0  0  0  0  0  0  0  0  0
  -52.3440   -2.8720  -27.5790   C 0  0  0  0  0  0  0  0  0  0  0  0
  -51.3790   -2.7980  -26.3890   C 0  0  0  0  0  0  0  0  0  0  0  0
  -52.4070   -4.3340  -28.0240   C 0  0  0  0  0  0  0  0  0  0  0  0
  -51.7840   -1.7550  -28.9280   S 0  0  0  0  0  0  0  0  0  0  0  0
  -52.8290   -1.5520  -29.8710   O 0  0  0  0  0  0  0  0  0  0  0  0
  -50.5550   -2.2500  -29.4160   O 0  0  0  0  0  0  0  0  0  0  0  0
  -51.4920   -0.1300  -28.2220   C 0  0  0  0  0  0  0  0  0  0  0  0
 27 26  2  0  0  0  0
 28 26  2  0  0  0  0
 26 29  1  0  0  0  0
 26 23  1  0  0  0  0
 25 23  1  0  0  0  0
 18 17  2  0  0  0  0
 18 19  1  0  0  0  0
 17 16  1  0  0  0  0
 23 22  1  0  0  0  0
 23 24  1  0  0  0  0
 22 21  1  0  0  0  0
 21 19  1  0  0  0  0
 19 20  2  0  0  0  0
 16 15  2  0  0  0  0
 20 15  1  0  0  0  0
 15 14  1  0  0  0  0
 14  4  1  0  0  0  0
  4  5  2  0  0  0  0
  4 12  1  0  0  0  0
  5  6  1  0  0  0  0
  8  3  1  0  0  0  0
  3  7  1  0  0  0  0
  3 13  1  0  0  0  0
 12  2  2  0  0  0  0
  6 13  1  0  0  0  0
  6  1  2  0  0  0  0
 13 11  1  0  0  0  0
  2  1  1  0  0  0  0
  1  9  1  0  0  0  0
 11  9  2  0  0  0  0
 11 10  1  0  0  0  0
M  END
>  <InstanceId>
5CAP_4ZH_A_1103

>  <ChemCompId>
4ZH

>  <PdbId>
5CAP

>  <ChainId>
A

>  <ResidueNumber>
1103

>  <InsertionCode>


>  <Model>
1

>  <AltIds>


>  <MissingHeavyAtoms>
0

>  <ObservedFormula>
C19 N6 O3 S

>  <Name>
2-methyl-N-[2-(2-methyl-2-methylsulfonyl-propoxy)pyrimidin-4-yl]-1-propan-2-yl-imidazo[4,5-c]pyridin-6-amine

>  <SystematicName>
2-methyl-N-[2-(2-methyl-2-methylsulfonyl-propoxy)pyrimidin-4-yl]-1-propan-2-yl-imidazo[4,5-c]pyridin-6-amine

>  <Synonyms>


>  <Type>
NON-POLYMER

>  <Formula>
C19 H26 N6 O3 S

>  <MolecularWeight>
418.513

>  <ModifiedDate>
2015-10-23

>  <Parent>


>  <OneLetterCode>


>  <SubcomponentList>


>  <AmbiguousFlag>
N

>  <InChI>
InChI=1S/C19H26N6O3S/c1-12(2)25-13(3)22-14-10-21-17(9-15(14)25)23-16-7-8-20-18(24-16)28-11-19(4,5)29(6,26)27/h7-10,12H,11H2,1-6H3,(H,20,21,23,24)

>  <InChIKey>
SHYWETJFHVMCJS-UHFFFAOYSA-N

>  <SMILES>
Cc1nc2cnc(cc2n1C(C)C)Nc3ccnc(n3)OCC(C)(C)S(=O)(=O)C

$$$$
