4QY3_3G1_A_302
  RCSB PDB08012023053D
Coordinates from PDB:4QY3:A:302 Model:1 without hydrogens
 18 19  0  0  0  0            999 V2000
    6.4690   -8.5960    6.1710   C 0  0  0  0  0  0  0  0  0  0  0  0
    5.4160   -8.2950    7.0430   C 0  0  0  0  0  0  0  0  0  0  0  0
    4.7780   -9.3490    7.7090   C 0  0  0  0  0  0  0  0  0  0  0  0
    5.1720  -10.6560    7.5020   C 0  0  0  0  0  0  0  0  0  0  0  0
    6.8570   -9.9150    5.9680   C 0  0  0  0  0  0  0  0  0  0  0  0
    6.2250   -7.2390    3.7660   C 0  0  0  0  0  0  0  0  0  0  0  0
    5.7110   -4.7960    3.5230   C 0  0  0  0  0  0  0  0  0  0  0  0
    5.7020   -3.6310    2.7830   C 0  0  0  0  0  0  0  0  0  0  0  0
    6.2620   -3.6010    1.5210   C 0  0  0  0  0  0  0  0  0  0  0  0
    6.8360   -4.7470    1.0080   C 0  0  0  0  0  0  0  0  0  0  0  0
    6.8490   -5.9170    1.7420   C 0  0  0  0  0  0  0  0  0  0  0  0
    5.7050   -6.0100    6.6820   O 0  0  0  0  0  0  0  0  0  0  0  0
    5.0340   -6.8760    7.2830   C 0  0  0  0  0  0  0  0  0  0  0  0
    4.0830   -6.6730    8.0680   O 0  0  0  0  0  0  0  0  0  0  0  0
    6.2010  -10.9380    6.6430   C 0  0  0  0  0  0  0  0  0  0  0  0
    7.3730   -7.3550    5.2120   S 0  0  0  0  0  0  0  0  0  0  0  0
    8.6280   -8.0390    4.7860   O 0  0  0  0  0  0  0  0  0  0  0  0
    6.2800   -5.9560    3.0100   C 0  0  0  0  0  0  0  0  0  0  0  0
 10  9  2  0  0  0  0
 10 11  1  0  0  0  0
  9  8  1  0  0  0  0
 11 18  2  0  0  0  0
  8  7  2  0  0  0  0
 18  7  1  0  0  0  0
 18  6  1  0  0  0  0
  6 16  1  0  0  0  0
 17 16  2  0  0  0  0
 16  1  1  0  0  0  0
  5  1  2  0  0  0  0
  5 15  1  0  0  0  0
  1  2  1  0  0  0  0
 15  4  2  0  0  0  0
 12 13  2  0  0  0  0
  2 13  1  0  0  0  0
  2  3  2  0  0  0  0
 13 14  1  0  0  0  0
  4  3  1  0  0  0  0
M  END
>  <InstanceId>
4QY3_3G1_A_302

>  <ChemCompId>
3G1

>  <PdbId>
4QY3

>  <ChainId>
A

>  <ResidueNumber>
302

>  <InsertionCode>


>  <Model>
1

>  <AltIds>


>  <MissingHeavyAtoms>
0

>  <ObservedFormula>
C14 O3 S

>  <Name>
2-[(S)-benzylsulfinyl]benzoic acid

>  <SystematicName>
2-[(S)-(phenylmethyl)sulfinyl]benzoic acid

>  <Synonyms>


>  <Type>
NON-POLYMER

>  <Formula>
C14 H12 O3 S

>  <MolecularWeight>
260.308

>  <ModifiedDate>
2014-11-28

>  <Parent>


>  <OneLetterCode>


>  <SubcomponentList>


>  <AmbiguousFlag>
N

>  <InChI>
InChI=1S/C14H12O3S/c15-14(16)12-8-4-5-9-13(12)18(17)10-11-6-2-1-3-7-11/h1-9H,10H2,(H,15,16)/t18-/m0/s1

>  <InChIKey>
IHSDWNKZUMUWEX-SFHVURJKSA-N

>  <SMILES>
c1ccc(cc1)C[S@](=O)c2ccccc2C(=O)O

$$$$
