2FQW_NOS_A_400
  RCSB PDB08012017003D
Coordinates from PDB:2FQW:A:400 Model:1 without hydrogens
 19 21  0  0  0  0            999 V2000
   33.9770   61.4890   10.3450   N 0  0  0  0  0  0  0  0  0  0  0  0
   34.7280   61.5340    9.2430   C 0  0  0  0  0  0  0  0  0  0  0  0
   35.3520   60.5580    8.5640   N 0  0  0  0  0  0  0  0  0  0  0  0
   36.0580   60.8160    7.4740   C 0  0  0  0  0  0  0  0  0  0  0  0
   36.1660   62.1330    7.0050   N 0  0  0  0  0  0  0  0  0  0  0  0
   35.5300   63.1760    7.6970   C 0  0  0  0  0  0  0  0  0  0  0  0
   35.6300   64.3380    7.3000   O 0  0  0  0  0  0  0  0  0  0  0  0
   34.7970   62.8630    8.8390   C 0  0  0  0  0  0  0  0  0  0  0  0
   34.0850   63.5740    9.7130   N 0  0  0  0  0  0  0  0  0  0  0  0
   33.5960   62.7350   10.6260   C 0  0  0  0  0  0  0  0  0  0  0  0
   31.3410   61.3630   13.6360   C 0  0  0  0  0  0  0  0  0  0  0  0
   31.6380   62.7050   13.2340   O 0  0  0  0  0  0  0  0  0  0  0  0
   32.3370   60.3630   13.0370   C 0  0  0  0  0  0  0  0  0  0  0  0
   32.2640   60.4650   11.6030   O 0  0  0  0  0  0  0  0  0  0  0  0
   33.5810   60.2460   11.0590   C 0  0  0  0  0  0  0  0  0  0  0  0
   34.5090   59.9530   12.2430   C 0  0  0  0  0  0  0  0  0  0  0  0
   34.5300   58.5400   12.4790   O 0  0  0  0  0  0  0  0  0  0  0  0
   33.7930   60.6990   13.3670   C 0  0  0  0  0  0  0  0  0  0  0  0
   34.1720   60.0970   14.6080   O 0  0  0  0  0  0  0  0  0  0  0  0
  5  4  1  0  0  0  0
  5  6  1  0  0  0  0
  4  3  2  0  0  0  0
  7  6  2  0  0  0  0
  6  8  1  0  0  0  0
  3  2  1  0  0  0  0
 17 16  1  0  0  0  0
  8  2  2  0  0  0  0
  8  9  1  0  0  0  0
  2  1  1  0  0  0  0
  9 10  2  0  0  0  0
  1 10  1  0  0  0  0
  1 15  1  0  0  0  0
 15 16  1  0  0  0  0
 15 14  1  0  0  0  0
 16 18  1  0  0  0  0
 14 13  1  0  0  0  0
 18 19  1  0  0  0  0
 18 13  1  0  0  0  0
 13 11  1  0  0  0  0
 11 12  1  0  0  0  0
M  END
>  <InstanceId>
2FQW_NOS_A_400

>  <ChemCompId>
NOS

>  <PdbId>
2FQW

>  <ChainId>
A

>  <ResidueNumber>
400

>  <InsertionCode>


>  <Model>
1

>  <AltIds>


>  <MissingHeavyAtoms>
0

>  <ObservedFormula>
C10 N4 O5

>  <Name>
INOSINE

>  <SystematicName>
9-[(2~{R},3~{R},4~{S},5~{R})-5-(hydroxymethyl)-3,4-bis(oxidanyl)oxolan-2-yl]-1~{H}-purin-6-one

>  <Synonyms>


>  <Type>
NON-POLYMER

>  <Formula>
C10 H12 N4 O5

>  <MolecularWeight>
268.226

>  <ModifiedDate>
2018-09-13

>  <Parent>


>  <OneLetterCode>


>  <SubcomponentList>


>  <AmbiguousFlag>
N

>  <InChI>
InChI=1S/C10H12N4O5/c15-1-4-6(16)7(17)10(19-4)14-3-13-5-8(14)11-2-12-9(5)18/h2-4,6-7,10,15-17H,1H2,(H,11,12,18)/t4-,6-,7-,10-/m1/s1

>  <InChIKey>
UGQMRVRMYYASKQ-KQYNXXCUSA-N

>  <SMILES>
c1nc2c(n1[C@H]3[C@@H]([C@@H]([C@H](O3)CO)O)O)N=CNC2=O

$$$$
