1GX8_RTL_A_1163
  RCSB PDB08012015013D
Coordinates from PDB:1GX8:A:1163 Model:1 without hydrogens
 21 21  0  0  0  0            999 V2000
   12.1920   -2.0580   56.5960   C 0  0  0  0  0  0  0  0  0  0  0  0
   13.6660   -2.1210   57.0700   C 0  0  0  0  0  0  0  0  0  0  0  0
   13.8270   -2.4290   58.5320   C 0  0  0  0  0  0  0  0  0  0  0  0
   13.2170   -1.2960   59.3320   C 0  0  0  0  0  0  0  0  0  0  0  0
   11.8380   -0.9510   58.8370   C 0  0  0  0  0  0  0  0  0  0  0  0
   11.2990   -1.3880   57.6630   C 0  0  0  0  0  0  0  0  0  0  0  0
   10.0610   -0.7270   57.2060   C 0  0  0  0  0  0  0  0  0  0  0  0
    8.7950   -1.1080   57.1830   C 0  0  0  0  0  0  0  0  0  0  0  0
    7.5610   -0.5020   56.7350   C 0  0  0  0  0  0  0  0  0  0  0  0
    6.4290   -1.2150   56.9020   C 0  0  0  0  0  0  0  0  0  0  0  0
    5.0900   -0.8210   56.5200   C 0  0  0  0  0  0  0  0  0  0  0  0
    3.9760   -1.5590   56.6580   C 0  0  0  0  0  0  0  0  0  0  0  0
    2.6270   -1.1300   56.2950   C 0  0  0  0  0  0  0  0  0  0  0  0
    2.0180   -0.2960   57.1490   C 0  0  0  0  0  0  0  0  0  0  0  0
    0.6750    0.3290   57.0320   C 0  0  0  0  0  0  0  0  0  0  0  0
   -0.2350   -0.3640   57.7090   O 0  0  0  0  0  0  0  0  0  0  0  0
   12.2170   -1.2010   55.3060   C 0  0  0  0  0  0  0  0  0  0  0  0
   11.7030   -3.4620   56.2220   C 0  0  0  0  0  0  0  0  0  0  0  0
   11.2360    0.1590   59.6770   C 0  0  0  0  0  0  0  0  0  0  0  0
    7.5950    0.9030   56.1510   C 0  0  0  0  0  0  0  0  0  0  0  0
    2.0350   -1.6590   55.0290   C 0  0  0  0  0  0  0  0  0  0  0  0
  1  2  1  0  0  0  0
  1  6  1  0  0  0  0
  1 17  1  0  0  0  0
  1 18  1  0  0  0  0
  2  3  1  0  0  0  0
  3  4  1  0  0  0  0
  4  5  1  0  0  0  0
  5  6  2  0  0  0  0
  5 19  1  0  0  0  0
  6  7  1  0  0  0  0
  7  8  2  0  0  0  0
  8  9  1  0  0  0  0
  9 10  2  0  0  0  0
  9 20  1  0  0  0  0
 10 11  1  0  0  0  0
 11 12  2  0  0  0  0
 12 13  1  0  0  0  0
 13 14  2  0  0  0  0
 13 21  1  0  0  0  0
 14 15  1  0  0  0  0
 15 16  1  0  0  0  0
M  END
>  <InstanceId>
1GX8_RTL_A_1163

>  <ChemCompId>
RTL

>  <PdbId>
1GX8

>  <ChainId>
A

>  <ResidueNumber>
1163

>  <InsertionCode>


>  <Model>
1

>  <AltIds>


>  <MissingHeavyAtoms>
0

>  <ObservedFormula>
C20 O

>  <Name>
RETINOL

>  <SystematicName>
(2~{E},4~{E},6~{E},8~{E})-3,7-dimethyl-9-(2,6,6-trimethylcyclohexen-1-yl)nona-2,4,6,8-tetraen-1-ol

>  <Synonyms>


>  <Type>
NON-POLYMER

>  <Formula>
C20 H30 O

>  <MolecularWeight>
286.452

>  <ModifiedDate>
2020-06-03

>  <Parent>


>  <OneLetterCode>


>  <SubcomponentList>


>  <AmbiguousFlag>
N

>  <InChI>
InChI=1S/C20H30O/c1-16(8-6-9-17(2)13-15-21)11-12-19-18(3)10-7-14-20(19,4)5/h6,8-9,11-13,21H,7,10,14-15H2,1-5H3/b9-6+,12-11+,16-8+,17-13+

>  <InChIKey>
FPIPGXGPPPQFEQ-OVSJKPMPSA-N

>  <SMILES>
CC1=C(C(CCC1)(C)C)/C=C/C(=C/C=C/C(=C/CO)/C)/C

$$$$
