4AV5_FYZ_A_201
  RCSB PDB08012021093D
Coordinates from PDB:4AV5:A:201 Model:1 without hydrogens
 27 29  0  0  0  0            999 V2000
    3.3660  -13.8320  -10.5240   O 0  0  0  0  0  0  0  0  0  0  0  0
    3.9250  -14.3500  -11.7510   C 0  0  0  0  0  0  0  0  0  0  0  0
    3.2120  -15.6360  -12.1450   C 0  0  0  0  0  0  0  0  0  0  0  0
    3.2890  -16.6240  -11.0940   O 0  0  0  0  0  0  0  0  0  0  0  0
    1.7540  -15.3410  -12.4910   C 0  0  0  0  0  0  0  0  0  0  0  0
    1.1090  -16.5210  -12.9400   O 0  0  0  0  0  0  0  0  0  0  0  0
    1.6740  -14.2080  -13.5370   C 0  0  0  0  0  0  0  0  0  0  0  0
    2.3790  -13.0560  -13.0980   O 0  0  0  0  0  0  0  0  0  0  0  0
    0.2340  -13.8040  -13.8070   C 0  0  0  0  0  0  0  0  0  0  0  0
   -0.4060  -13.2860  -12.6440   O 0  0  0  0  0  0  0  0  0  0  0  0
    3.7660  -13.2680  -12.8000   C 0  0  0  0  0  0  0  0  0  0  0  0
    4.4520  -13.7410  -13.9640   O 0  0  0  0  0  0  0  0  0  0  0  0
    4.6670  -12.6380  -14.8760   C 0  0  0  0  0  0  0  0  0  0  0  0
    4.5920  -13.0440  -16.2930   C 0  0  0  0  0  0  0  0  0  0  0  0
    4.5400  -13.3690  -17.4270   C 0  0  0  0  0  0  0  0  0  0  0  0
    4.5120  -13.7810  -18.6590   C 0  0  0  0  0  0  0  0  0  0  0  0
    5.4390  -14.7570  -19.0460   C 0  0  0  0  0  0  0  0  0  0  0  0
    5.4350  -15.2490  -20.3560   C 0  0  0  0  0  0  0  0  0  0  0  0
    4.4990  -14.7830  -21.2720   C 0  0  0  0  0  0  0  0  0  0  0  0
    3.5940  -13.7820  -20.8920   C 0  0  0  0  0  0  0  0  0  0  0  0
    3.5830  -13.2850  -19.5790   C 0  0  0  0  0  0  0  0  0  0  0  0
    4.5590  -15.3080  -22.6740   C 0  0  0  0  0  0  0  0  0  0  0  0
    5.6650  -16.0670  -23.0520   C 0  0  0  0  0  0  0  0  0  0  0  0
    5.7560  -16.5600  -24.3620   C 0  0  0  0  0  0  0  0  0  0  0  0
    4.7380  -16.2600  -25.2650   C 0  0  0  0  0  0  0  0  0  0  0  0
    3.6410  -15.4900  -24.9000   C 0  0  0  0  0  0  0  0  0  0  0  0
    3.5580  -15.0010  -23.5890   C 0  0  0  0  0  0  0  0  0  0  0  0
  1  2  1  0  0  0  0
  2  3  1  0  0  0  0
  2 11  1  0  0  0  0
  3  4  1  0  0  0  0
  3  5  1  0  0  0  0
  5  6  1  0  0  0  0
  5  7  1  0  0  0  0
  7  8  1  0  0  0  0
  7  9  1  0  0  0  0
  8 11  1  0  0  0  0
  9 10  1  0  0  0  0
 11 12  1  0  0  0  0
 12 13  1  0  0  0  0
 13 14  1  0  0  0  0
 14 15  3  0  0  0  0
 15 16  1  0  0  0  0
 16 17  1  0  0  0  0
 16 21  2  0  0  0  0
 17 18  2  0  0  0  0
 18 19  1  0  0  0  0
 19 20  2  0  0  0  0
 19 22  1  0  0  0  0
 20 21  1  0  0  0  0
 22 23  1  0  0  0  0
 22 27  2  0  0  0  0
 23 24  2  0  0  0  0
 24 25  1  0  0  0  0
 25 26  2  0  0  0  0
 26 27  1  0  0  0  0
M  END
>  <InstanceId>
4AV5_FYZ_A_201

>  <ChemCompId>
FYZ

>  <PdbId>
4AV5

>  <ChainId>
A

>  <ResidueNumber>
201

>  <InsertionCode>


>  <Model>
1

>  <AltIds>


>  <MissingHeavyAtoms>
0

>  <ObservedFormula>
C21 O6

>  <Name>
(2R,3S,4S,5S,6S)-2-(hydroxymethyl)-6-[3-(4-phenylphenyl)prop-2-ynoxy]oxane-3,4,5-triol

>  <SystematicName>
(2R,3S,4S,5S,6S)-2-(hydroxymethyl)-6-[3-(4-phenylphenyl)prop-2-ynoxy]oxane-3,4,5-triol

>  <Synonyms>


>  <Type>
non-polymer

>  <Formula>
C21 H22 O6

>  <MolecularWeight>
370.396

>  <ModifiedDate>
2014-09-05

>  <Parent>


>  <OneLetterCode>


>  <SubcomponentList>


>  <AmbiguousFlag>
N

>  <InChI>
InChI=1S/C21H22O6/c22-13-17-18(23)19(24)20(25)21(27-17)26-12-4-5-14-8-10-16(11-9-14)15-6-2-1-3-7-15/h1-3,6-11,17-25H,12-13H2/t17-,18-,19+,20+,21+/m1/s1

>  <InChIKey>
UEPMXFZVTJIHES-MJCUULBUSA-N

>  <SMILES>
c1ccc(cc1)c2ccc(cc2)C#CCO[C@@H]3[C@H]([C@H]([C@@H]([C@H](O3)CO)O)O)O

$$$$
