2YI7_BZ8_A_1225
  RCSB PDB08012018233D
Coordinates from PDB:2YI7:A:1225 Model:1 without hydrogens
 23 25  0  0  0  0            999 V2000
   29.9550    9.2310   28.1610   N 0  0  0  0  0  0  0  0  0  0  0  0
   29.8940   10.0360   27.1790   N 0  0  0  0  0  0  0  0  0  0  0  0
   30.6790    9.6670   26.1280   C 0  0  0  0  0  0  0  0  0  0  0  0
   31.4010    8.4840   26.3290   C 0  0  0  0  0  0  0  0  0  0  0  0
   30.7760   10.4410   24.9340   C 0  0  0  0  0  0  0  0  0  0  0  0
   32.2820    7.7630   25.5100   C 0  0  0  0  0  0  0  0  0  0  0  0
   33.5610    7.3940   25.9190   C 0  0  0  0  0  0  0  0  0  0  0  0
   34.4230    6.7170   24.9990   C 0  0  0  0  0  0  0  0  0  0  0  0
   33.9660    6.4300   23.6960   C 0  0  0  0  0  0  0  0  0  0  0  0
   32.7060    6.7480   23.3680   C 0  0  0  0  0  0  0  0  0  0  0  0
   31.8840    7.4880   24.2010   C 0  0  0  0  0  0  0  0  0  0  0  0
   29.6680   10.8210   24.2350   C 0  0  0  0  0  0  0  0  0  0  0  0
   29.6630   11.5160   23.0100   C 0  0  0  0  0  0  0  0  0  0  0  0
   30.9030   11.9560   22.5330   C 0  0  0  0  0  0  0  0  0  0  0  0
   31.9960   11.6330   23.2480   C 0  0  0  0  0  0  0  0  0  0  0  0
   32.0140   10.9030   24.4280   C 0  0  0  0  0  0  0  0  0  0  0  0
   31.0130   12.5680   21.3180   O 0  0  0  0  0  0  0  0  0  0  0  0
   28.4160   10.4180   24.6800   O 0  0  0  0  0  0  0  0  0  0  0  0
   34.9240    5.7370   22.9910   O 0  0  0  0  0  0  0  0  0  0  0  0
   30.9240    7.9770   27.9530   S 0  0  0  0  0  0  0  0  0  0  0  0
   34.5470    5.3840   21.6320   C 0  0  0  0  0  0  0  0  0  0  0  0
   33.5760   12.2560   22.7250  Cl 0  0  0  0  0  0  0  0  0  0  0  0
   35.7260    4.6000   21.0860   C 0  0  0  0  0  0  0  0  0  0  0  0
  1  2  2  0  0  0  0
  1 20  1  0  0  0  0
  2  3  1  0  0  0  0
  3  4  2  0  0  0  0
  3  5  1  0  0  0  0
  4  6  1  0  0  0  0
  4 20  1  0  0  0  0
  5 12  1  0  0  0  0
  5 16  2  0  0  0  0
  6 11  2  0  0  0  0
  6  7  1  0  0  0  0
 11 10  1  0  0  0  0
 10  9  2  0  0  0  0
  9  8  1  0  0  0  0
  9 19  1  0  0  0  0
  8  7  2  0  0  0  0
 12 13  2  0  0  0  0
 12 18  1  0  0  0  0
 13 14  1  0  0  0  0
 14 15  2  0  0  0  0
 14 17  1  0  0  0  0
 15 16  1  0  0  0  0
 15 22  1  0  0  0  0
 19 21  1  0  0  0  0
 21 23  1  0  0  0  0
M  END
>  <InstanceId>
2YI7_BZ8_A_1225

>  <ChemCompId>
BZ8

>  <PdbId>
2YI7

>  <ChainId>
A

>  <ResidueNumber>
1225

>  <InsertionCode>


>  <Model>
1

>  <AltIds>


>  <MissingHeavyAtoms>
0

>  <ObservedFormula>
C16 N2 O3 S Cl

>  <Name>
4-CHLORO-6-[5-(4-ETHOXYPHENYL)-1,2,3-THIADIAZOL-4-YL BENZENE-1,3-DIOL

>  <SystematicName>
4-chloranyl-6-[5-(4-ethoxyphenyl)-1,2,3-thiadiazol-4-yl]benzene-1,3-diol

>  <Synonyms>


>  <Type>
non-polymer

>  <Formula>
C16 H13 Cl N2 O3 S

>  <MolecularWeight>
348.804

>  <ModifiedDate>
2012-05-11

>  <Parent>


>  <OneLetterCode>


>  <SubcomponentList>


>  <AmbiguousFlag>
N

>  <InChI>
InChI=1S/C16H13ClN2O3S/c1-2-22-10-5-3-9(4-6-10)16-15(18-19-23-16)11-7-12(17)14(21)8-13(11)20/h3-8,20-21H,2H2,1H3

>  <InChIKey>
RFRZSMIYYCXYNL-UHFFFAOYSA-N

>  <SMILES>
CCOc1ccc(cc1)c2c(nns2)c3cc(c(cc3O)O)Cl

$$$$
