4EHZ_JAK_A_1201
  RCSB PDB08012021363D
Coordinates from PDB:4EHZ:A:1201 Model:1 without hydrogens
 19 22  0  0  0  0            999 V2000
    9.0250   56.7440   -0.4570   C 0  0  0  0  0  0  0  0  0  0  0  0
    7.8940   57.7420   -0.2550   C 0  0  0  0  0  0  0  0  0  0  0  0
    7.9570   58.9710   -0.6380   N 0  0  0  0  0  0  0  0  0  0  0  0
    6.8210   59.6150   -0.3260   C 0  0  0  0  0  0  0  0  0  0  0  0
    6.4120   60.9300   -0.5330   C 0  0  0  0  0  0  0  0  0  0  0  0
    5.2400   61.3230   -0.1200   N 0  0  0  0  0  0  0  0  0  0  0  0
    4.3730   60.5150    0.4950   C 0  0  0  0  0  0  0  0  0  0  0  0
    4.7130   59.1670    0.7370   C 0  0  0  0  0  0  0  0  0  0  0  0
    5.9770   58.6880    0.3220   C 0  0  0  0  0  0  0  0  0  0  0  0
    6.6890   57.4990    0.3410   N 0  0  0  0  0  0  0  0  0  0  0  0
    6.3260   56.1840    0.9120   C 0  0  0  0  0  0  0  0  0  0  0  0
    6.0470   56.3520    2.4070   C 0  0  0  0  0  0  0  0  0  0  0  0
    5.8160   54.9740    3.0270   C 0  0  0  0  0  0  0  0  0  0  0  0
    4.7110   54.2700    2.3530   N 0  0  0  0  0  0  0  0  0  0  0  0
    4.9070   54.1420    0.9070   C 0  0  0  0  0  0  0  0  0  0  0  0
    5.1090   55.5140    0.2590   C 0  0  0  0  0  0  0  0  0  0  0  0
    3.5410   58.6020    1.4130   C 0  0  0  0  0  0  0  0  0  0  0  0
    2.6230   59.5770    1.5360   C 0  0  0  0  0  0  0  0  0  0  0  0
    3.1000   60.7340    0.9940   N 0  0  0  0  0  0  0  0  0  0  0  0
  1  2  1  0  0  0  0
  2 10  1  0  0  0  0
  3  2  2  0  0  0  0
  3  4  1  0  0  0  0
  4  9  1  0  0  0  0
  5  4  2  0  0  0  0
  5  6  1  0  0  0  0
  6  7  2  0  0  0  0
  7  8  1  0  0  0  0
  7 19  1  0  0  0  0
  8 17  1  0  0  0  0
  9  8  2  0  0  0  0
  9 10  1  0  0  0  0
 10 11  1  0  0  0  0
 11 12  1  0  0  0  0
 12 13  1  0  0  0  0
 14 13  1  0  0  0  0
 15 14  1  0  0  0  0
 16 11  1  0  0  0  0
 16 15  1  0  0  0  0
 17 18  2  0  0  0  0
 19 18  1  0  0  0  0
M  END
>  <InstanceId>
4EHZ_JAK_A_1201

>  <ChemCompId>
JAK

>  <PdbId>
4EHZ

>  <ChainId>
A

>  <ResidueNumber>
1201

>  <InsertionCode>


>  <Model>
1

>  <AltIds>


>  <MissingHeavyAtoms>
0

>  <ObservedFormula>
C14 N5

>  <Name>
2-methyl-1-(piperidin-4-yl)-1,6-dihydroimidazo[4,5-d]pyrrolo[2,3-b]pyridine

>  <SystematicName>


>  <Synonyms>


>  <Type>
NON-POLYMER

>  <Formula>
C14 H17 N5

>  <MolecularWeight>
255.318

>  <ModifiedDate>
2012-06-29

>  <Parent>


>  <OneLetterCode>


>  <SubcomponentList>


>  <AmbiguousFlag>
N

>  <InChI>
InChI=1S/C14H17N5/c1-9-18-12-8-17-14-11(4-7-16-14)13(12)19(9)10-2-5-15-6-3-10/h4,7-8,10,15H,2-3,5-6H2,1H3,(H,16,17)

>  <InChIKey>
XTQACRIFOIASKV-UHFFFAOYSA-N

>  <SMILES>
Cc1nc2cnc3c(c2n1C4CCNCC4)cc[nH]3

$$$$
