5UF0_89J_A_501
  RCSB PDB08022003123D
Coordinates from PDB:5UF0:A:501 Model:1 without hydrogens
 16 17  0  0  0  0            999 V2000
  -15.6340   11.3610    2.6740   C 0  0  0  0  0  0  0  0  0  0  0  0
  -15.7860   13.2590    1.1940   C 0  0  0  0  0  0  0  0  0  0  0  0
  -15.0710   12.1980    1.7310   C 0  0  0  0  0  0  0  0  0  0  0  0
  -11.4610   12.7050    0.8410   C 0  0  0  0  0  0  0  0  0  0  0  0
  -13.7090   11.9320    1.2410   C 0  0  0  0  0  0  0  0  0  0  0  0
  -11.2990   11.5000    0.0010   C 0  0  0  0  0  0  0  0  0  0  0  0
  -17.6410   12.6710    2.5780   C 0  0  0  0  0  0  0  0  0  0  0  0
  -16.9280   11.6090    3.1060   C 0  0  0  0  0  0  0  0  0  0  0  0
  -17.0800   13.4980    1.6250   C 0  0  0  0  0  0  0  0  0  0  0  0
  -12.6230   12.9040    1.4910   C 0  0  0  0  0  0  0  0  0  0  0  0
  -12.2470    9.4050   -0.7680   C 0  0  0  0  0  0  0  0  0  0  0  0
  -11.8290   14.8630    2.7090   C 0  0  0  0  0  0  0  0  0  0  0  0
  -13.5770   10.8770    0.5180   N 0  0  0  0  0  0  0  0  0  0  0  0
  -12.3580   10.6370   -0.0210   N 0  0  0  0  0  0  0  0  0  0  0  0
  -12.8920   13.9650    2.3320   N 0  0  0  0  0  0  0  0  0  0  0  0
  -10.2180   11.2950   -0.5560   O 0  0  0  0  0  0  0  0  0  0  0  0
 11 14  1  0  0  0  0
 16  6  2  0  0  0  0
 14  6  1  0  0  0  0
 14 13  1  0  0  0  0
  6  4  1  0  0  0  0
 13  5  2  0  0  0  0
  4 10  2  0  0  0  0
  2  9  2  0  0  0  0
  2  3  1  0  0  0  0
  5 10  1  0  0  0  0
  5  3  1  0  0  0  0
 10 15  1  0  0  0  0
  9  7  1  0  0  0  0
  3  1  2  0  0  0  0
 15 12  1  0  0  0  0
  7  8  2  0  0  0  0
  1  8  1  0  0  0  0
M  END
>  <InstanceId>
5UF0_89J_A_501

>  <ChemCompId>
89J

>  <PdbId>
5UF0

>  <ChainId>
A

>  <ResidueNumber>
501

>  <InsertionCode>


>  <Model>
1

>  <AltIds>


>  <MissingHeavyAtoms>
0

>  <ObservedFormula>
C12 N3 O

>  <Name>
2-methyl-5-(methylamino)-6-phenylpyridazin-3(2H)-one

>  <SystematicName>
2-methyl-5-(methylamino)-6-phenyl-pyridazin-3-one

>  <Synonyms>


>  <Type>
NON-POLYMER

>  <Formula>
C12 H13 N3 O

>  <MolecularWeight>
215.251

>  <ModifiedDate>
2017-06-23

>  <Parent>


>  <OneLetterCode>


>  <SubcomponentList>


>  <AmbiguousFlag>
N

>  <InChI>
InChI=1S/C12H13N3O/c1-13-10-8-11(16)15(2)14-12(10)9-6-4-3-5-7-9/h3-8,13H,1-2H3

>  <InChIKey>
ZRCCUVSDZQJQEX-UHFFFAOYSA-N

>  <SMILES>
CNC1=CC(=O)N(N=C1c2ccccc2)C

$$$$
