3B50_SLB_A_311
  RCSB PDB08012018363D
Coordinates from PDB:3B50:A:311 Model:1 without hydrogens
 21 21  0  0  0  0            999 V2000
    7.7790   -9.5130  -11.1610   C 0  0  0  0  0  0  0  0  0  0  0  0
    9.0520   -9.2390  -11.9040   C 0  0  0  0  0  0  0  0  0  0  0  0
   10.1800   -8.7400  -11.0090   C 0  0  0  0  0  0  0  0  0  0  0  0
   11.3590   -8.2780  -11.8590   C 0  0  0  0  0  0  0  0  0  0  0  0
   10.8240   -7.1970  -12.8110   C 0  0  0  0  0  0  0  0  0  0  0  0
    9.7250   -7.8030  -13.6960   C 0  0  0  0  0  0  0  0  0  0  0  0
    9.1030   -6.7920  -14.6600   C 0  0  0  0  0  0  0  0  0  0  0  0
    7.9550   -7.4210  -15.4450   C 0  0  0  0  0  0  0  0  0  0  0  0
    7.3850   -6.4740  -16.4860   C 0  0  0  0  0  0  0  0  0  0  0  0
   12.4520   -5.4880  -13.5230   C 0  0  0  0  0  0  0  0  0  0  0  0
   13.5640   -5.1490  -14.4890   C 0  0  0  0  0  0  0  0  0  0  0  0
   11.9210   -6.7250  -13.6610   N 0  0  0  0  0  0  0  0  0  0  0  0
    7.3530  -10.6830  -11.1010   O 0  0  0  0  0  0  0  0  0  0  0  0
    7.1790   -8.5230  -10.6660   O 0  0  0  0  0  0  0  0  0  0  0  0
    9.4450  -10.3810  -12.6470   O 0  0  0  0  0  0  0  0  0  0  0  0
   12.3790   -7.8060  -10.9690   O 0  0  0  0  0  0  0  0  0  0  0  0
    8.6920   -8.2590  -12.8420   O 0  0  0  0  0  0  0  0  0  0  0  0
    8.6140   -5.6730  -13.9380   O 0  0  0  0  0  0  0  0  0  0  0  0
    8.3910   -8.6280  -16.0380   O 0  0  0  0  0  0  0  0  0  0  0  0
    8.3560   -5.9950  -17.4350   O 0  0  0  0  0  0  0  0  0  0  0  0
   12.0820   -4.6860  -12.6420   O 0  0  0  0  0  0  0  0  0  0  0  0
  1  2  1  0  0  0  0
  1 13  2  0  0  0  0
  1 14  1  0  0  0  0
  2  3  1  0  0  0  0
  2 15  1  0  0  0  0
  2 17  1  0  0  0  0
  3  4  1  0  0  0  0
  4  5  1  0  0  0  0
  4 16  1  0  0  0  0
  5  6  1  0  0  0  0
  5 12  1  0  0  0  0
  6  7  1  0  0  0  0
  6 17  1  0  0  0  0
  7  8  1  0  0  0  0
  7 18  1  0  0  0  0
  8  9  1  0  0  0  0
  8 19  1  0  0  0  0
  9 20  1  0  0  0  0
 10 11  1  0  0  0  0
 10 12  1  0  0  0  0
 10 21  2  0  0  0  0
M  END
>  <InstanceId>
3B50_SLB_A_311

>  <ChemCompId>
SLB

>  <PdbId>
3B50

>  <ChainId>
A

>  <ResidueNumber>
311

>  <InsertionCode>


>  <Model>
1

>  <AltIds>


>  <MissingHeavyAtoms>
0

>  <ObservedFormula>
C11 N O9

>  <Name>
N-acetyl-beta-neuraminic acid

>  <SystematicName>
(2S,4S,5R,6R)-5-acetamido-2,4-dihydroxy-6-[(1R,2R)-1,2,3-trihydroxypropyl]oxane-2-carboxylic acid

>  <Synonyms>
N-acetylneuraminic acid; sialic acid; O-sialic acid; 5-N-ACETYL-BETA-D-NEURAMINIC ACID; BETA-SIALIC ACID

>  <Type>
D-saccharide, beta linking

>  <Formula>
C11 H19 N O9

>  <MolecularWeight>
309.27

>  <ModifiedDate>
2020-07-17

>  <Parent>


>  <OneLetterCode>


>  <SubcomponentList>


>  <AmbiguousFlag>
N

>  <InChI>
InChI=1S/C11H19NO9/c1-4(14)12-7-5(15)2-11(20,10(18)19)21-9(7)8(17)6(16)3-13/h5-9,13,15-17,20H,2-3H2,1H3,(H,12,14)(H,18,19)/t5-,6+,7+,8+,9+,11-/m0/s1

>  <InChIKey>
SQVRNKJHWKZAKO-PFQGKNLYSA-N

>  <SMILES>
CC(=O)N[C@@H]1[C@H](C[C@](O[C@H]1[C@@H]([C@@H](CO)O)O)(C(=O)O)O)O

$$$$
