1CGL_0ED_A_1
  RCSB PDB08012014413D
Coordinates from PDB:1CGL:A:1 Model:1 without hydrogens
 45 47  0  0  0  0            999 V2000
   29.6830   45.3880    1.2040   C 0  0  0  0  0  0  0  0  0  0  0  0
   29.6440   45.4640    2.4450   O 0  0  0  0  0  0  0  0  0  0  0  0
   30.0780   46.3940    0.3160   O 0  0  0  0  0  0  0  0  0  0  0  0
   30.6030   47.6530    0.7460   C 0  0  0  0  0  0  0  0  0  0  0  0
   31.9180   47.4290    1.4500   C 0  0  0  0  0  0  0  0  0  0  0  0
   32.9890   46.8630    0.7660   C 0  0  0  0  0  0  0  0  0  0  0  0
   34.1630   46.5850    1.4340   C 0  0  0  0  0  0  0  0  0  0  0  0
   34.2280   46.9030    2.7900   C 0  0  0  0  0  0  0  0  0  0  0  0
   33.1780   47.5150    3.4670   C 0  0  0  0  0  0  0  0  0  0  0  0
   32.0330   47.7530    2.7930   C 0  0  0  0  0  0  0  0  0  0  0  0
   29.3370   44.2710    0.6500   N 0  0  0  0  0  0  0  0  0  0  0  0
   29.3740   44.1540   -0.8010   C 0  0  0  0  0  0  0  0  0  0  0  0
   29.2450   42.7180   -1.1400   C 0  0  0  0  0  0  0  0  0  0  0  0
   30.5770   41.9770   -1.0070   C 0  0  0  0  0  0  0  0  0  0  0  0
   31.5200   42.0330   -2.2490   C 0  0  0  0  0  0  0  0  0  0  0  0
   31.8150   43.0020   -2.9320   O 0  0  0  0  0  0  0  0  0  0  0  0
   31.9890   40.8170   -2.6590   O 0  0  0  0  0  0  0  0  0  0  0  0
   30.1420   40.5960   -0.7300   N 0  0  0  0  0  0  0  0  0  0  0  0
   29.4570   39.7430   -1.7960   C 0  0  0  0  0  0  0  0  0  0  0  0
   28.0090   39.6850   -1.3350   C 0  0  0  0  0  0  0  0  0  0  0  0
   27.7410   39.7360   -0.1160   O 0  0  0  0  0  0  0  0  0  0  0  0
   30.1810   38.3640   -1.8290   C 0  0  0  0  0  0  0  0  0  0  0  0
   29.7670   37.2800   -2.8150   C 0  0  0  0  0  0  0  0  0  0  0  0
   30.0320   37.6930   -4.2710   C 0  0  0  0  0  0  0  0  0  0  0  0
   30.3720   35.9000   -2.4850   C 0  0  0  0  0  0  0  0  0  0  0  0
   27.0850   39.5910   -2.3230   N 0  0  0  0  0  0  0  0  0  0  0  0
   25.6380   39.3850   -2.0580   C 0  0  0  0  0  0  0  0  0  0  0  0
   25.2620   37.9340   -2.4320   C 0  0  0  0  0  0  0  0  0  0  0  0
   25.7440   37.3740   -3.3770   O 0  0  0  0  0  0  0  0  0  0  0  0
   24.7710   40.3870   -2.8840   C 0  0  0  0  0  0  0  0  0  0  0  0
   24.8660   41.8600   -2.4630   C 0  0  0  0  0  0  0  0  0  0  0  0
   24.1990   42.2970   -1.3430   C 0  0  0  0  0  0  0  0  0  0  0  0
   25.8150   42.6850   -3.0750   C 0  0  0  0  0  0  0  0  0  0  0  0
   24.5580   43.4970   -0.7690   C 0  0  0  0  0  0  0  0  0  0  0  0
   26.1760   43.8730   -2.4760   C 0  0  0  0  0  0  0  0  0  0  0  0
   25.5690   44.2730   -1.3150   C 0  0  0  0  0  0  0  0  0  0  0  0
   21.0320   39.1800   -5.5530   O 0  0  0  0  0  0  0  0  0  0  0  0
   20.3680   39.3490   -4.3070   C 0  0  0  0  0  0  0  0  0  0  0  0
   21.1240   38.7690   -3.0680   C 0  0  0  0  0  0  0  0  0  0  0  0
   21.6510   37.4420   -3.3850   N 0  0  0  0  0  0  0  0  0  0  0  0
   22.2890   37.3510   -4.7210   C 0  0  0  0  0  0  0  0  0  0  0  0
   21.2520   37.8310   -5.7950   C 0  0  0  0  0  0  0  0  0  0  0  0
   22.1130   36.5570   -2.2810   C 0  0  0  0  0  0  0  0  0  0  0  0
   23.6060   36.1880   -2.1840   C 0  0  0  0  0  0  0  0  0  0  0  0
   24.3440   37.3620   -1.7460   N 0  0  0  0  0  0  0  0  0  0  0  0
  1  2  2  0  0  0  0
  1  3  1  0  0  0  0
  3  4  1  0  0  0  0
  4  5  1  0  0  0  0
  5  6  2  0  0  0  0
  5 10  1  0  0  0  0
  6  7  1  0  0  0  0
  7  8  2  0  0  0  0
  8  9  1  0  0  0  0
  9 10  2  0  0  0  0
 11 12  1  0  0  0  0
 12 13  1  0  0  0  0
 13 14  1  0  0  0  0
 14 15  1  0  0  0  0
 15 16  2  0  0  0  0
 15 17  1  0  0  0  0
 18 19  1  0  0  0  0
 19 20  1  0  0  0  0
 19 22  1  0  0  0  0
 20 21  2  0  0  0  0
 22 23  1  0  0  0  0
 23 24  1  0  0  0  0
 23 25  1  0  0  0  0
 26 27  1  0  0  0  0
 27 28  1  0  0  0  0
 27 30  1  0  0  0  0
 28 29  2  0  0  0  0
 30 31  1  0  0  0  0
 31 32  2  0  0  0  0
 31 33  1  0  0  0  0
 32 34  1  0  0  0  0
 33 35  2  0  0  0  0
 34 36  2  0  0  0  0
 35 36  1  0  0  0  0
 37 38  1  0  0  0  0
 37 42  1  0  0  0  0
 38 39  1  0  0  0  0
 39 40  1  0  0  0  0
 40 41  1  0  0  0  0
 40 43  1  0  0  0  0
 41 42  1  0  0  0  0
 43 44  1  0  0  0  0
 44 45  1  0  0  0  0
  1 11  1  0  0  0  0
 14 18  1  0  0  0  0
 20 26  1  0  0  0  0
 28 45  1  0  0  0  0
M  END
>  <InstanceId>
1CGL_0ED_A_1

>  <ChemCompId>
0ED

>  <PdbId>
1CGL

>  <ChainId>
A

>  <ResidueNumber>
1

>  <InsertionCode>


>  <Model>
1

>  <AltIds>


>  <MissingHeavyAtoms>
0

>  <ObservedFormula>
C33 N5 O7

>  <Name>
N-[(1S)-3-{[(benzyloxy)carbonyl]amino}-1-carboxypropyl]-L-leucyl-N-(2-morpholin-4-ylethyl)-L-phenylalaninamide

>  <SystematicName>
(2S)-2-[[(2S)-4-methyl-1-[[(2S)-1-(2-morpholin-4-ylethylamino)-1-oxo-3-phenyl-propan-2-yl]amino]-1-oxo-pentan-2-yl]amino]-4-phenylmethoxycarbonylamino-butanoic acid

>  <Synonyms>


>  <Type>
peptide-like

>  <Formula>
C33 H47 N5 O7

>  <MolecularWeight>
625.756

>  <ModifiedDate>
2011-07-13

>  <Parent>


>  <OneLetterCode>


>  <SubcomponentList>
PHQ ABU LEU PHE EMR

>  <AmbiguousFlag>
N

>  <InChI>
InChI=1S/C33H47N5O7/c1-24(2)21-28(36-27(32(41)42)13-14-35-33(43)45-23-26-11-7-4-8-12-26)31(40)37-29(22-25-9-5-3-6-10-25)30(39)34-15-16-38-17-19-44-20-18-38/h3-12,24,27-29,36H,13-23H2,1-2H3,(H,34,39)(H,35,43)(H,37,40)(H,41,42)/t27-,28+,29+/m1/s1

>  <InChIKey>
XQSMAYNMHYYWCR-ULNSLHSMSA-N

>  <SMILES>


$$$$
