3LEA_Z93_A_1
  RCSB PDB08012019413D
Coordinates from PDB:3LEA:A:1 Model:1 without hydrogens
 32 36  0  0  0  0            999 V2000
   19.3530   13.3640   -4.8100   N 0  0  0  0  0  0  0  0  0  0  0  0
   18.3660   14.0730   -5.4560   C 0  0  0  0  0  0  0  0  0  0  0  0
   18.3680   13.7170   -6.9790   C 0  0  0  0  0  0  0  0  0  0  0  0
   19.4150   12.6810   -6.9500   N 0  0  0  0  0  0  0  0  0  0  0  0
   19.9890   12.4930   -5.6510   C 0  0  0  0  0  0  0  0  0  0  0  0
   20.8900   11.7110   -5.2730   O 0  0  0  0  0  0  0  0  0  0  0  0
   17.6430   14.9110   -4.9390   O 0  0  0  0  0  0  0  0  0  0  0  0
   17.0620   13.0570   -7.3610   C 0  0  0  0  0  0  0  0  0  0  0  0
   16.5700   13.1330   -8.6960   C 0  0  0  0  0  0  0  0  0  0  0  0
   15.3450   12.5360   -9.0390   C 0  0  0  0  0  0  0  0  0  0  0  0
   14.5650   11.8500   -8.0680   C 0  0  0  0  0  0  0  0  0  0  0  0
   15.0280   11.7830   -6.7210   C 0  0  0  0  0  0  0  0  0  0  0  0
   16.2640   12.3700   -6.3670   C 0  0  0  0  0  0  0  0  0  0  0  0
   13.2800   11.2140   -8.4360   C 0  0  0  0  0  0  0  0  0  0  0  0
   12.2590   10.9030   -7.4760   C 0  0  0  0  0  0  0  0  0  0  0  0
   11.0440   10.3110   -7.8610   C 0  0  0  0  0  0  0  0  0  0  0  0
   10.8440   10.0410   -9.2110   C 0  0  0  0  0  0  0  0  0  0  0  0
   11.7570   10.3220  -10.1890   N 0  0  0  0  0  0  0  0  0  0  0  0
   12.9530   10.9030   -9.7840   C 0  0  0  0  0  0  0  0  0  0  0  0
   20.0590   15.4990   -7.2890   N 0  3  0  0  0  0  0  0  0  0  0  0
   20.2720   16.2860   -6.0550   C 0  0  0  0  0  0  0  0  0  0  0  0
   21.2470   15.0200   -7.8700   C 0  0  0  0  0  0  0  0  0  0  0  0
   18.7400   15.0720   -7.7690   C 0  0  0  0  0  0  0  0  0  0  0  0
   22.3600   15.5320   -7.0340   C 0  0  0  0  0  0  0  0  0  0  0  0
   21.7640   16.2820   -5.9530   C 0  0  0  0  0  0  0  0  0  0  0  0
   22.5370   16.9130   -4.9850   C 0  0  0  0  0  0  0  0  0  0  0  0
   23.9440   16.7560   -5.1120   C 0  0  0  0  0  0  0  0  0  0  0  0
   24.5580   16.0130   -6.1850   C 0  0  0  0  0  0  0  0  0  0  0  0
   23.7730   15.3750   -7.1800   C 0  0  0  0  0  0  0  0  0  0  0  0
   21.3490   14.3520   -8.8810   O 0  0  0  0  0  0  0  0  0  0  0  0
   25.9480   15.9220   -6.3580   O 0  0  0  0  0  0  0  0  0  0  0  0
   26.8080   16.5650   -5.3760   C 0  0  0  0  0  0  0  0  0  0  0  0
  1  2  1  0  0  0  0
  1  5  1  0  0  0  0
  2  3  1  0  0  0  0
  2  7  2  0  0  0  0
  3  4  1  0  0  0  0
  3  8  1  0  0  0  0
  3 23  1  0  0  0  0
  4  5  1  0  0  0  0
  5  6  2  0  0  0  0
  8  9  2  0  0  0  0
  8 13  1  0  0  0  0
  9 10  1  0  0  0  0
 10 11  2  0  0  0  0
 11 12  1  0  0  0  0
 11 14  1  0  0  0  0
 12 13  2  0  0  0  0
 14 15  2  0  0  0  0
 14 19  1  0  0  0  0
 15 16  1  0  0  0  0
 16 17  2  0  0  0  0
 17 18  1  0  0  0  0
 18 19  2  0  0  0  0
 20 21  2  0  0  0  0
 20 22  1  0  0  0  0
 20 23  1  0  0  0  0
 21 25  1  0  0  0  0
 22 24  1  0  0  0  0
 22 30  2  0  0  0  0
 24 25  2  0  0  0  0
 24 29  1  0  0  0  0
 25 26  1  0  0  0  0
 26 27  2  0  0  0  0
 27 28  1  0  0  0  0
 28 29  2  0  0  0  0
 28 31  1  0  0  0  0
 31 32  1  0  0  0  0
M  CHG  1  20   1
M  END
>  <InstanceId>
3LEA_Z93_A_1

>  <ChemCompId>
Z93

>  <PdbId>
3LEA

>  <ChainId>
A

>  <ResidueNumber>
1

>  <InsertionCode>


>  <Model>
1

>  <AltIds>


>  <MissingHeavyAtoms>
0

>  <ObservedFormula>
C24 N4 O4

>  <Name>
2-{[(4R)-2,5-dioxo-4-(4-pyridin-3-ylphenyl)imidazolidin-4-yl]methyl}-6-methoxy-1-oxo-1H-isoindolium

>  <SystematicName>
(5R)-5-[(6-methoxy-1-oxo-isoindol-2-ium-2-yl)methyl]-5-(4-pyridin-3-ylphenyl)imidazolidine-2,4-dione

>  <Synonyms>
N-[(1S)-2-AMINO-1-(2,4-DICHLOROBENZYL)ETHYL]-5-[2-(METHYLAMINO)PYRIMIDIN-4-YL]THIOPHENE-2-CARBOXAMIDE

>  <Type>
NON-POLYMER

>  <Formula>
C24 H19 N4 O4

>  <MolecularWeight>
427.432

>  <ModifiedDate>
2020-06-17

>  <Parent>


>  <OneLetterCode>


>  <SubcomponentList>


>  <AmbiguousFlag>
N

>  <InChI>
InChI=1S/C24H18N4O4/c1-32-19-9-6-17-13-28(21(29)20(17)11-19)14-24(22(30)26-23(31)27-24)18-7-4-15(5-8-18)16-3-2-10-25-12-16/h2-13H,14H2,1H3,(H-,26,27,30,31)/p+1/t24-/m0/s1

>  <InChIKey>
IPWWTFLYEBQOPS-DEOSSOPVSA-O

>  <SMILES>
COc1ccc2c(c1)C(=O)[N+](=C2)C[C@@]3(C(=O)NC(=O)N3)c4ccc(cc4)c5cccnc5

$$$$
