1GNM_U0E_A_100
  RCSB PDB08012014593D
Coordinates from PDB:1GNM:A:100 Model:1 without hydrogens
 42 42  0  0  0  0            999 V2000
  -10.0700   15.6730   32.1470   C 0  0  0  0  0  0  0  0  0  0  0  0
   -9.9670   15.3250   30.6620   C 0  0  0  0  0  0  0  0  0  0  0  0
  -10.7660   16.0590   28.4260   C 0  0  0  0  0  0  0  0  0  0  0  0
  -12.2860   16.0110   28.1150   C 0  0  0  0  0  0  0  0  0  0  0  0
  -12.9240   14.7800   28.7960   C 0  0  0  0  0  0  0  0  0  0  0  0
  -14.4240   15.0320   28.9640   C 0  0  0  0  0  0  0  0  0  0  0  0
  -15.0720   13.8480   29.6800   C 0  0  0  0  0  0  0  0  0  0  0  0
  -14.8530   12.5510   28.8960   C 0  0  0  0  0  0  0  0  0  0  0  0
  -13.3570   12.2850   28.6920   C 0  0  0  0  0  0  0  0  0  0  0  0
  -12.6840   13.4800   28.0030   C 0  0  0  0  0  0  0  0  0  0  0  0
  -10.1840   17.2570   27.6460   C 0  0  0  0  0  0  0  0  0  0  0  0
   -8.7240   17.6300   27.9550   C 0  0  0  0  0  0  0  0  0  0  0  0
   -7.8420   18.3080   26.8940   C 0  0  0  0  0  0  0  0  0  0  0  0
   -6.4850   18.7290   27.4670   C 0  0  0  0  0  0  0  0  0  0  0  0
   -5.4680   17.5850   27.4920   C 0  0  0  0  0  0  0  0  0  0  0  0
   -5.8160   19.8490   26.6590   C 0  0  0  0  0  0  0  0  0  0  0  0
   -7.5900   17.3310   25.7570   C 0  0  0  0  0  0  0  0  0  0  0  0
   -7.6320   17.0130   23.3490   C 0  0  0  0  0  0  0  0  0  0  0  0
   -8.9800   16.7580   22.6770   C 0  0  0  0  0  0  0  0  0  0  0  0
   -8.8790   15.8070   21.4870   C 0  0  0  0  0  0  0  0  0  0  0  0
   -8.6980   16.5470   20.1650   C 0  0  0  0  0  0  0  0  0  0  0  0
   -6.6900   17.7470   22.3960   C 0  0  0  0  0  0  0  0  0  0  0  0
   -4.5510   17.5570   21.2020   C 0  0  0  0  0  0  0  0  0  0  0  0
   -4.4890   16.7130   19.9260   C 0  0  0  0  0  0  0  0  0  0  0  0
   -3.1980   17.4750   21.9150   C 0  0  0  0  0  0  0  0  0  0  0  0
   -2.2580   18.6290   21.5570   C 0  0  0  0  0  0  0  0  0  0  0  0
   -1.7630   19.4020   22.7840   C 0  0  0  0  0  0  0  0  0  0  0  0
    0.4810   19.9670   23.6900   C 0  0  0  0  0  0  0  0  0  0  0  0
  -10.6020   16.1960   29.8880   N 0  0  0  0  0  0  0  0  0  0  0  0
   -7.8240   17.8130   24.5600   N 0  0  0  0  0  0  0  0  0  0  0  0
   -8.0500   15.9730   19.1690   N 0  0  0  0  0  0  0  0  0  0  0  0
   -5.6100   17.0540   22.0870   N 0  0  0  0  0  0  0  0  0  0  0  0
   -4.1140   17.2520   18.7580   N 0  0  0  0  0  0  0  0  0  0  0  0
   -0.3720   19.0880   23.1420   N 0  0  0  0  0  0  0  0  0  0  0  0
    0.0750   21.1950   24.0400   N 0  0  0  0  0  0  0  0  0  0  0  0
    1.7740   19.7090   23.9290   N 0  0  0  0  0  0  0  0  0  0  0  0
   -9.3090   14.3330   30.3010   O 0  0  0  0  0  0  0  0  0  0  0  0
  -10.9450   18.4190   27.8970   O 0  0  0  0  0  0  0  0  0  0  0  0
   -7.2050   16.1780   25.9830   O 0  0  0  0  0  0  0  0  0  0  0  0
   -9.1560   17.6810   20.0310   O 0  0  0  0  0  0  0  0  0  0  0  0
   -6.9600   18.8860   21.9850   O 0  0  0  0  0  0  0  0  0  0  0  0
   -4.7830   15.5080   19.9420   O 0  0  0  0  0  0  0  0  0  0  0  0
  1  2  1  0  0  0  0
  2 29  1  0  0  0  0
  2 37  2  0  0  0  0
  3  4  1  0  0  0  0
  3 11  1  0  0  0  0
  3 29  1  0  0  0  0
  4  5  1  0  0  0  0
  5  6  1  0  0  0  0
  5 10  1  0  0  0  0
  6  7  1  0  0  0  0
  7  8  1  0  0  0  0
  8  9  1  0  0  0  0
  9 10  1  0  0  0  0
 11 12  1  0  0  0  0
 11 38  1  0  0  0  0
 12 13  1  0  0  0  0
 13 14  1  0  0  0  0
 13 17  1  0  0  0  0
 14 15  1  0  0  0  0
 14 16  1  0  0  0  0
 17 30  1  0  0  0  0
 17 39  2  0  0  0  0
 18 19  1  0  0  0  0
 18 22  1  0  0  0  0
 18 30  1  0  0  0  0
 19 20  1  0  0  0  0
 20 21  1  0  0  0  0
 21 31  1  0  0  0  0
 21 40  2  0  0  0  0
 22 32  1  0  0  0  0
 22 41  2  0  0  0  0
 23 24  1  0  0  0  0
 23 25  1  0  0  0  0
 23 32  1  0  0  0  0
 24 33  1  0  0  0  0
 24 42  2  0  0  0  0
 25 26  1  0  0  0  0
 26 27  1  0  0  0  0
 27 34  1  0  0  0  0
 28 34  1  0  0  0  0
 28 35  2  0  0  0  0
 28 36  1  0  0  0  0
M  END
>  <InstanceId>
1GNM_U0E_A_100

>  <ChemCompId>
U0E

>  <PdbId>
1GNM

>  <ChainId>
A

>  <ResidueNumber>
100

>  <InsertionCode>


>  <Model>
1

>  <AltIds>


>  <MissingHeavyAtoms>
0

>  <ObservedFormula>
C28 N8 O6

>  <Name>
N-[[1-[N-ACETAMIDYL]-[1-CYCLOHEXYLMETHYL-2-HYDROXY-4-ISOPROPYL]-BUT-4-YL]-CARBONYL]-GLUTAMINYL-ARGINYL-AMIDE

>  <SystematicName>
(2S)-2-[[(2S,4S,5S)-5-acetamido-6-cyclohexyl-4-hydroxy-2-propan-2-yl-hexanoyl]amino]-N-[(2S)-1-amino-5-carbamimidamido-1-oxo-pentan-2-yl]pentanediamide

>  <Synonyms>


>  <Type>
NON-POLYMER

>  <Formula>
C28 H52 N8 O6

>  <MolecularWeight>
596.762

>  <ModifiedDate>
2011-06-04

>  <Parent>


>  <OneLetterCode>


>  <SubcomponentList>


>  <AmbiguousFlag>
N

>  <InChI>
InChI=1S/C28H52N8O6/c1-16(2)19(15-23(38)22(34-17(3)37)14-18-8-5-4-6-9-18)26(41)36-21(11-12-24(29)39)27(42)35-20(25(30)40)10-7-13-33-28(31)32/h16,18-23,38H,4-15H2,1-3H3,(H2,29,39)(H2,30,40)(H,34,37)(H,35,42)(H,36,41)(H4,31,32,33)/t19-,20-,21-,22-,23-/m0/s1

>  <InChIKey>
XTOQWMLQBSGKOK-VUBDRERZSA-N

>  <SMILES>
CC(C)[C@H](C[C@@H]([C@H](CC1CCCCC1)NC(=O)C)O)C(=O)N[C@@H](CCC(=O)N)C(=O)N[C@@H](CCCNC(=N)N)C(=O)N

$$$$
