185L_IND_A_400
  RCSB PDB08012014323D
Coordinates from PDB:185L:A:400 Model:1 without hydrogens
  9 10  0  0  0  0            999 V2000
   28.5560    7.3580    3.1830   N 0  0  0  0  0  0  0  0  0  0  0  0
   28.3670    6.5900    2.0680   C 0  0  0  0  0  0  0  0  0  0  0  0
   27.4810    5.6010    2.3230   C 0  0  0  0  0  0  0  0  0  0  0  0
   26.1410    5.1180    4.4680   C 0  0  0  0  0  0  0  0  0  0  0  0
   26.0020    5.5250    5.7650   C 0  0  0  0  0  0  0  0  0  0  0  0
   26.7180    6.5870    6.2770   C 0  0  0  0  0  0  0  0  0  0  0  0
   27.5970    7.2920    5.5050   C 0  0  0  0  0  0  0  0  0  0  0  0
   27.7470    6.8770    4.1890   C 0  0  0  0  0  0  0  0  0  0  0  0
   27.0540    5.7730    3.6750   C 0  0  0  0  0  0  0  0  0  0  0  0
  1  2  1  0  0  0  0
  1  8  1  0  0  0  0
  2  3  2  0  0  0  0
  3  9  1  0  0  0  0
  4  5  2  0  0  0  0
  4  9  1  0  0  0  0
  5  6  1  0  0  0  0
  6  7  2  0  0  0  0
  7  8  1  0  0  0  0
  8  9  2  0  0  0  0
M  END
>  <InstanceId>
185L_IND_A_400

>  <ChemCompId>
IND

>  <PdbId>
185L

>  <ChainId>
A

>  <ResidueNumber>
400

>  <InsertionCode>


>  <Model>
1

>  <AltIds>


>  <MissingHeavyAtoms>
0

>  <ObservedFormula>
C8 N

>  <Name>
INDOLE

>  <SystematicName>
1H-indole

>  <Synonyms>


>  <Type>
NON-POLYMER

>  <Formula>
C8 H7 N

>  <MolecularWeight>
117.148

>  <ModifiedDate>
2011-06-04

>  <Parent>


>  <OneLetterCode>


>  <SubcomponentList>


>  <AmbiguousFlag>
N

>  <InChI>
InChI=1S/C8H7N/c1-2-4-8-7(3-1)5-6-9-8/h1-6,9H

>  <InChIKey>
SIKJAQJRHWYJAI-UHFFFAOYSA-N

>  <SMILES>
c1ccc2c(c1)cc[nH]2

$$$$
