5A6X_MFU_A_201
  RCSB PDB08022000443D
Coordinates from PDB:5A6X:A:201 Model:1 without hydrogens
 12 12  0  0  0  0            999 V2000
   -5.2390    6.8280    9.2330   C 0  0  0  0  0  0  0  0  0  0  0  0
   -4.2700    6.7240    8.0540   C 0  0  0  0  0  0  0  0  0  0  0  0
   -3.9690    8.0820    7.4980   C 0  0  0  0  0  0  0  0  0  0  0  0
   -3.3190    8.9000    8.5940   C 0  0  0  0  0  0  0  0  0  0  0  0
   -4.2500    8.9880    9.7910   C 0  0  0  0  0  0  0  0  0  0  0  0
   -3.6860    9.7260   10.9900   C 0  0  0  0  0  0  0  0  0  0  0  0
   -6.4110    7.4190    8.7370   O 0  0  0  0  0  0  0  0  0  0  0  0
   -4.8350    5.9270    7.0230   O 0  0  0  0  0  0  0  0  0  0  0  0
   -2.9870    7.8530    6.4520   O 0  0  0  0  0  0  0  0  0  0  0  0
   -2.0480    8.2810    8.8960   O 0  0  0  0  0  0  0  0  0  0  0  0
   -4.6480    7.6710   10.2010   O 0  0  0  0  0  0  0  0  0  0  0  0
   -7.4480    7.4290    9.7190   C 0  0  0  0  0  0  0  0  0  0  0  0
  1  2  1  0  0  0  0
  1  7  1  0  0  0  0
  1 11  1  0  0  0  0
  2  3  1  0  0  0  0
  2  8  1  0  0  0  0
  3  4  1  0  0  0  0
  3  9  1  0  0  0  0
  4  5  1  0  0  0  0
  4 10  1  0  0  0  0
  5  6  1  0  0  0  0
  5 11  1  0  0  0  0
  7 12  1  0  0  0  0
M  END
>  <InstanceId>
5A6X_MFU_A_201

>  <ChemCompId>
MFU

>  <PdbId>
5A6X

>  <ChainId>
A

>  <ResidueNumber>
201

>  <InsertionCode>


>  <Model>
1

>  <AltIds>


>  <MissingHeavyAtoms>
0

>  <ObservedFormula>
C7 O5

>  <Name>
methyl alpha-L-fucopyranoside

>  <SystematicName>
(2R,3S,4R,5S,6S)-2-methoxy-6-methyl-oxane-3,4,5-triol

>  <Synonyms>
ALPHA-L-METHYL-FUCOSE; methyl 6-deoxy-alpha-L-galactopyranoside; methyl alpha-L-fucoside; methyl L-fucoside; methyl fucoside

>  <Type>
L-saccharide

>  <Formula>
C7 H14 O5

>  <MolecularWeight>
178.183

>  <ModifiedDate>
2020-07-17

>  <Parent>
FUC

>  <OneLetterCode>


>  <SubcomponentList>


>  <AmbiguousFlag>
N

>  <InChI>
InChI=1S/C7H14O5/c1-3-4(8)5(9)6(10)7(11-2)12-3/h3-10H,1-2H3/t3-,4+,5+,6-,7+/m0/s1

>  <InChIKey>
OHWCAVRRXKJCRB-CXNFULCWSA-N

>  <SMILES>
C[C@H]1[C@H]([C@H]([C@@H]([C@@H](O1)OC)O)O)O

$$$$
