4RQK_R1S_A_404
  RCSB PDB08012023113D
Coordinates from PDB:4RQK:A:404 Model:1 without hydrogens
 23 26  0  0  0  0            999 V2000
  -15.8170   17.6650  -14.3270  Cl 0  0  0  0  0  0  0  0  0  0  0  0
  -14.4680   17.9080  -13.2630   C 0  0  0  0  0  0  0  0  0  0  0  0
  -14.6450   17.5310  -11.9410   C 0  0  0  0  0  0  0  0  0  0  0  0
  -13.6040   17.7090  -11.0470   C 0  0  0  0  0  0  0  0  0  0  0  0
  -12.3900   18.2470  -11.4560   C 0  0  0  0  0  0  0  0  0  0  0  0
  -12.2110   18.6310  -12.8030   C 0  0  0  0  0  0  0  0  0  0  0  0
  -13.2560   18.4590  -13.7010   C 0  0  0  0  0  0  0  0  0  0  0  0
  -11.3770   18.3830  -10.4170   N 0  0  0  0  0  0  0  0  0  0  0  0
  -11.8870   17.9230   -9.2160   C 0  0  0  0  0  0  0  0  0  0  0  0
  -11.2450   17.9170   -7.9530   N 0  0  0  0  0  0  0  0  0  0  0  0
   -9.9020   17.0690   -7.6820   S 0  0  0  0  0  0  0  0  0  0  0  0
   -8.8300   17.4520   -8.5560   O 0  0  0  0  0  0  0  0  0  0  0  0
   -9.3320   17.2910   -6.3840   O 0  0  0  0  0  0  0  0  0  0  0  0
  -10.5250   15.4390   -7.9250   C 0  0  0  0  0  0  0  0  0  0  0  0
  -11.6570   14.8660   -7.2680   C 0  0  0  0  0  0  0  0  0  0  0  0
  -11.8720   13.3310   -7.8410   S 0  0  0  0  0  0  0  0  0  0  0  0
  -10.6240   13.2300   -8.9360   C 0  0  0  0  0  0  0  0  0  0  0  0
  -10.1620   12.2350   -9.7870   C 0  0  0  0  0  0  0  0  0  0  0  0
   -9.0530   12.5060  -10.5920   C 0  0  0  0  0  0  0  0  0  0  0  0
   -8.3800   13.7430  -10.5620   C 0  0  0  0  0  0  0  0  0  0  0  0
   -8.8340   14.7240   -9.7160   C 0  0  0  0  0  0  0  0  0  0  0  0
   -9.9530   14.4560   -8.9040   C 0  0  0  0  0  0  0  0  0  0  0  0
  -13.4460   17.3740   -9.4340   S 0  0  0  0  0  0  0  0  0  0  0  0
  1  2  1  0  0  0  0
  7  2  2  0  0  0  0
  7  6  1  0  0  0  0
  2  3  1  0  0  0  0
  6  5  2  0  0  0  0
  3  4  2  0  0  0  0
  5  4  1  0  0  0  0
  5  8  1  0  0  0  0
  4 23  1  0  0  0  0
 19 20  2  0  0  0  0
 19 18  1  0  0  0  0
 20 21  1  0  0  0  0
  8  9  2  0  0  0  0
 18 17  2  0  0  0  0
 21 22  2  0  0  0  0
 23  9  1  0  0  0  0
  9 10  1  0  0  0  0
 17 22  1  0  0  0  0
 17 16  1  0  0  0  0
 22 14  1  0  0  0  0
 12 11  2  0  0  0  0
 10 11  1  0  0  0  0
 14 11  1  0  0  0  0
 14 15  2  0  0  0  0
 16 15  1  0  0  0  0
 11 13  2  0  0  0  0
M  END
>  <InstanceId>
4RQK_R1S_A_404

>  <ChemCompId>
R1S

>  <PdbId>
4RQK

>  <ChainId>
A

>  <ResidueNumber>
404

>  <InsertionCode>


>  <Model>
1

>  <AltIds>


>  <MissingHeavyAtoms>
0

>  <ObservedFormula>
C15 N2 O2 S3 Cl

>  <Name>
N-(6-chloro-1,3-benzothiazol-2-yl)-1-benzothiophene-3-sulfonamide

>  <SystematicName>
N-(6-chloranyl-1,3-benzothiazol-2-yl)-1-benzothiophene-3-sulfonamide

>  <Synonyms>


>  <Type>
NON-POLYMER

>  <Formula>
C15 H9 Cl N2 O2 S3

>  <MolecularWeight>
380.892

>  <ModifiedDate>
2014-12-12

>  <Parent>


>  <OneLetterCode>


>  <SubcomponentList>


>  <AmbiguousFlag>
N

>  <InChI>
InChI=1S/C15H9ClN2O2S3/c16-9-5-6-11-13(7-9)22-15(17-11)18-23(19,20)14-8-21-12-4-2-1-3-10(12)14/h1-8H,(H,17,18)

>  <InChIKey>
VLGMTYRMKMVUHJ-UHFFFAOYSA-N

>  <SMILES>
c1ccc2c(c1)c(cs2)S(=O)(=O)Nc3nc4ccc(cc4s3)Cl

$$$$
