4RJ8_3QS_A_1102
  RCSB PDB08012023103D
Coordinates from PDB:4RJ8:A:1102 Model:1 without hydrogens
 29 33  0  0  0  0            999 V2000
  -51.8500   -2.5060  -28.1050   C 0  0  0  0  0  0  0  0  0  0  0  0
  -53.0670   -1.6340  -27.7620   C 0  0  0  0  0  0  0  0  0  0  0  0
  -56.3870    0.4030  -26.4600   C 0  0  0  0  0  0  0  0  0  0  0  0
  -52.1570   -1.3780  -25.3740   C 0  0  0  0  0  0  0  0  0  0  0  0
  -50.8320   -2.0140  -25.8300   C 0  0  0  0  0  0  0  0  0  0  0  0
  -54.3220   -0.5820  -25.9920   C 0  0  0  0  0  0  0  0  0  0  0  0
  -56.2340    1.2340  -25.3540   C 0  0  0  0  0  0  0  0  0  0  0  0
  -55.0760    1.1070  -24.5710   C 0  0  0  0  0  0  0  0  0  0  0  0
  -50.6530   -1.9060  -27.3520   C 0  0  0  0  0  0  0  0  0  0  0  0
  -48.9370   -3.6880  -27.6630   C 0  0  0  0  0  0  0  0  0  0  0  0
  -49.3620   -2.3200  -27.8220   O 0  0  0  0  0  0  0  0  0  0  0  0
  -53.3310   -1.5260  -26.2920   N 0  0  0  0  0  0  0  0  0  0  0  0
  -55.4300   -0.4750  -26.7380   N 0  0  0  0  0  0  0  0  0  0  0  0
  -54.1640    0.2100  -24.9300   N 0  0  0  0  0  0  0  0  0  0  0  0
  -54.8730    1.9400  -23.4810   N 0  0  0  0  0  0  0  0  0  0  0  0
  -54.2190    1.6270  -22.2810   C 0  0  0  0  0  0  0  0  0  0  0  0
  -53.2060    0.6660  -22.1940   C 0  0  0  0  0  0  0  0  0  0  0  0
  -52.5990    0.4120  -20.9530   C 0  0  0  0  0  0  0  0  0  0  0  0
  -53.0180    1.1890  -19.8360   C 0  0  0  0  0  0  0  0  0  0  0  0
  -52.2240    0.7390  -18.6910   C 0  0  0  0  0  0  0  0  0  0  0  0
  -51.4320   -0.2390  -19.1430   C 0  0  0  0  0  0  0  0  0  0  0  0
  -51.6300   -0.4530  -20.4980   N 0  0  0  0  0  0  0  0  0  0  0  0
  -50.9100   -1.4390  -21.3380   C 0  0  0  0  0  0  0  0  0  0  0  0
  -49.9180   -0.7260  -22.2730   C 0  0  0  0  0  0  0  0  0  0  0  0
  -48.6880   -0.4610  -21.3770   C 0  0  0  0  0  0  0  0  0  0  0  0
  -48.5750   -1.7690  -20.5540   C 0  0  0  0  0  0  0  0  0  0  0  0
  -49.9960   -2.3850  -20.5340   C 0  0  0  0  0  0  0  0  0  0  0  0
  -54.0040    2.1600  -20.0210   C 0  0  0  0  0  0  0  0  0  0  0  0
  -54.5730    2.3320  -21.2050   N 0  0  0  0  0  0  0  0  0  0  0  0
  7  3  2  0  0  0  0
  7  8  1  0  0  0  0
  3 13  1  0  0  0  0
 15  8  1  0  0  0  0
 15 16  1  0  0  0  0
 29 16  2  0  0  0  0
 29 28  1  0  0  0  0
  8 14  2  0  0  0  0
 16 17  1  0  0  0  0
 28 19  2  0  0  0  0
 13  6  2  0  0  0  0
 14  6  1  0  0  0  0
 17 18  2  0  0  0  0
 19 18  1  0  0  0  0
 19 20  1  0  0  0  0
  6 12  1  0  0  0  0
 18 22  1  0  0  0  0
 20 21  2  0  0  0  0
  2 12  1  0  0  0  0
  2  1  1  0  0  0  0
 12  4  1  0  0  0  0
  1  9  1  0  0  0  0
 22 21  1  0  0  0  0
 22 23  1  0  0  0  0
  5  4  1  0  0  0  0
  5  9  1  0  0  0  0
 23 27  1  0  0  0  0
 23 24  1  0  0  0  0
  9 11  1  0  0  0  0
 27 26  1  0  0  0  0
 11 10  1  0  0  0  0
 24 25  1  0  0  0  0
 26 25  1  0  0  0  0
M  END
>  <InstanceId>
4RJ8_3QS_A_1102

>  <ChemCompId>
3QS

>  <PdbId>
4RJ8

>  <ChainId>
A

>  <ResidueNumber>
1102

>  <InsertionCode>


>  <Model>
1

>  <AltIds>


>  <MissingHeavyAtoms>
0

>  <ObservedFormula>
C22 N6 O

>  <Name>
1-cyclopentyl-N-[2-(4-methoxypiperidin-1-yl)pyrimidin-4-yl]-1H-pyrrolo[3,2-c]pyridin-6-amine

>  <SystematicName>
1-cyclopentyl-N-[2-(4-methoxypiperidin-1-yl)pyrimidin-4-yl]pyrrolo[3,2-c]pyridin-6-amine

>  <Synonyms>


>  <Type>
NON-POLYMER

>  <Formula>
C22 H28 N6 O

>  <MolecularWeight>
392.497

>  <ModifiedDate>
2014-11-21

>  <Parent>


>  <OneLetterCode>


>  <SubcomponentList>


>  <AmbiguousFlag>
N

>  <InChI>
InChI=1S/C22H28N6O/c1-29-18-8-11-27(12-9-18)22-23-10-6-20(26-22)25-21-14-19-16(15-24-21)7-13-28(19)17-4-2-3-5-17/h6-7,10,13-15,17-18H,2-5,8-9,11-12H2,1H3,(H,23,24,25,26)

>  <InChIKey>
BYMFSZLMPVZBJV-UHFFFAOYSA-N

>  <SMILES>
COC1CCN(CC1)c2nccc(n2)Nc3cc4c(ccn4C5CCCC5)cn3

$$$$
