4CPR_378_A_1101
  RCSB PDB08012021243D
Coordinates from PDB:4CPR:A:1101 Model:1 without hydrogens
 54 56  0  0  0  0            999 V2000
    7.9440   26.6820    5.8230   C 0  0  0  0  0  0  0  0  0  0  0  0
   10.1670   25.6040    5.7500   N 0  0  0  0  0  0  0  0  0  0  0  0
    8.3120   27.7760    5.3940   O 0  0  0  0  0  0  0  0  0  0  0  0
    8.9170   25.7210    6.5260   C 0  0  0  0  0  0  0  0  0  0  0  0
    9.1990   26.1870    7.9670   C 0  0  0  0  0  0  0  0  0  0  0  0
    5.0230   27.4490    7.3000   C 0  0  0  0  0  0  0  0  0  0  0  0
    4.5640   25.7740    0.7220   C 0  0  0  0  0  0  0  0  0  0  0  0
   19.4830   17.9600    7.2560   C 0  0  0  0  0  0  0  0  0  0  0  0
   14.4320   17.9290    4.0150   C 0  0  0  0  0  0  0  0  0  0  0  0
   16.4290   18.3610    2.5790   C 0  0  0  0  0  0  0  0  0  0  0  0
   14.5880   20.0530    2.7040   C 0  0  0  0  0  0  0  0  0  0  0  0
   18.7590   19.3550    4.9480   O 0  0  0  0  0  0  0  0  0  0  0  0
   16.1600   16.2440   10.8280   S 0  0  0  0  0  0  0  0  0  0  0  0
   13.9400   20.2750    5.5780   O 0  0  0  0  0  0  0  0  0  0  0  0
   10.2900   23.3550    5.9850   O 0  0  0  0  0  0  0  0  0  0  0  0
   12.4700   25.7160    4.4780   O 0  0  0  0  0  0  0  0  0  0  0  0
    5.0550   27.8670    6.0250   C 0  0  0  0  0  0  0  0  0  0  0  0
    5.7600   25.7140    1.3210   C 0  0  0  0  0  0  0  0  0  0  0  0
   17.2890   20.6640    8.7450   C 0  0  0  0  0  0  0  0  0  0  0  0
   15.9480   21.0310    8.7650   C 0  0  0  0  0  0  0  0  0  0  0  0
   17.6970   19.4830    9.3560   C 0  0  0  0  0  0  0  0  0  0  0  0
   15.5420   22.2320    8.1920   C 0  0  0  0  0  0  0  0  0  0  0  0
    7.9660   23.1560    2.8450   C 0  0  0  0  0  0  0  0  0  0  0  0
    8.3190   25.4360    2.1680   C 0  0  0  0  0  0  0  0  0  0  0  0
    9.3310   23.0030    3.0600   C 0  0  0  0  0  0  0  0  0  0  0  0
    9.6840   25.2850    2.3920   C 0  0  0  0  0  0  0  0  0  0  0  0
   17.1670   17.5340   10.5720   C 0  0  0  0  0  0  0  0  0  0  0  0
   18.2800   17.4190   11.3150   C 0  0  0  0  0  0  0  0  0  0  0  0
   16.7720   18.6800   10.0150   C 0  0  0  0  0  0  0  0  0  0  0  0
    5.6610   26.9530    4.9590   C 0  0  0  0  0  0  0  0  0  0  0  0
   13.6630   24.0770    6.2970   C 0  0  0  0  0  0  0  0  0  0  0  0
    6.0820   24.4940    2.1860   C 0  0  0  0  0  0  0  0  0  0  0  0
   15.0850   23.5280    6.3850   C 0  0  0  0  0  0  0  0  0  0  0  0
   12.9700   23.4430    5.0920   C 0  0  0  0  0  0  0  0  0  0  0  0
   17.3870   15.3230   11.7880   C 0  0  0  0  0  0  0  0  0  0  0  0
   11.5440   23.9390    3.1190   C 0  0  0  0  0  0  0  0  0  0  0  0
    6.7390   26.1580    5.5630   N 0  0  0  0  0  0  0  0  0  0  0  0
   16.7330   18.6450    5.5020   N 0  0  0  0  0  0  0  0  0  0  0  0
   15.7510   21.4690    6.2810   N 0  0  0  0  0  0  0  0  0  0  0  0
   18.6420   17.4820    6.2000   O 0  0  0  0  0  0  0  0  0  0  0  0
   18.0650   18.5270    5.5380   C 0  0  0  0  0  0  0  0  0  0  0  0
   15.1440   20.5290    5.5290   C 0  0  0  0  0  0  0  0  0  0  0  0
   10.6810   24.3970    5.4590   C 0  0  0  0  0  0  0  0  0  0  0  0
    7.4600   24.3590    2.3630   C 0  0  0  0  0  0  0  0  0  0  0  0
   18.4750   16.2060   11.8800   C 0  0  0  0  0  0  0  0  0  0  0  0
   10.1810   24.0890    2.8980   C 0  0  0  0  0  0  0  0  0  0  0  0
   15.0260   20.2430    9.4450   C 0  0  0  0  0  0  0  0  0  0  0  0
   15.4320   19.0510   10.0370   C 0  0  0  0  0  0  0  0  0  0  0  0
   16.1030   19.6830    4.6720   C 0  0  0  0  0  0  0  0  0  0  0  0
   15.0740   22.1690    6.9460   N 0  0  0  0  0  0  0  0  0  0  0  0
   15.3830   19.0100    3.4950   C 0  0  0  0  0  0  0  0  0  0  0  0
   11.9150   24.4000    4.5380   C 0  0  0  0  0  0  0  0  0  0  0  0
    9.0920   27.7150    8.0800   C 0  0  0  0  0  0  0  0  0  0  0  0
   10.5970   25.7340    8.4010   C 0  0  0  0  0  0  0  0  0  0  0  0
  7 18  2  0  0  0  0
 18 32  1  0  0  0  0
 24 44  2  0  0  0  0
 24 26  1  0  0  0  0
 32 44  1  0  0  0  0
 44 23  1  0  0  0  0
 26 46  2  0  0  0  0
 10 51  1  0  0  0  0
 11 51  1  0  0  0  0
 23 25  2  0  0  0  0
 46 25  1  0  0  0  0
 46 36  1  0  0  0  0
 36 52  1  0  0  0  0
 51  9  1  0  0  0  0
 51 49  1  0  0  0  0
 16 52  1  0  0  0  0
 52 34  1  0  0  0  0
 52 43  1  0  0  0  0
 49 38  1  0  0  0  0
 49 42  1  0  0  0  0
 12 41  2  0  0  0  0
 30 37  1  0  0  0  0
 30 17  1  0  0  0  0
 34 31  1  0  0  0  0
  3  1  2  0  0  0  0
 43  2  1  0  0  0  0
 43 15  2  0  0  0  0
 38 41  1  0  0  0  0
 42 14  2  0  0  0  0
 42 39  1  0  0  0  0
 41 40  1  0  0  0  0
 37  1  1  0  0  0  0
  2  4  1  0  0  0  0
  1  4  1  0  0  0  0
 17  6  2  0  0  0  0
 40  8  1  0  0  0  0
 39 50  1  0  0  0  0
 31 33  1  0  0  0  0
 33 50  1  0  0  0  0
  4  5  1  0  0  0  0
 50 22  1  0  0  0  0
  5 53  1  0  0  0  0
  5 54  1  0  0  0  0
 22 20  1  0  0  0  0
 19 20  2  0  0  0  0
 19 21  1  0  0  0  0
 20 47  1  0  0  0  0
 21 29  2  0  0  0  0
 47 48  2  0  0  0  0
 29 48  1  0  0  0  0
 29 27  1  0  0  0  0
 27 13  1  0  0  0  0
 27 28  2  0  0  0  0
 13 35  1  0  0  0  0
 28 45  1  0  0  0  0
 35 45  2  0  0  0  0
M  END
>  <InstanceId>
4CPR_378_A_1101

>  <ChemCompId>
378

>  <PdbId>
4CPR

>  <ChainId>
A

>  <ResidueNumber>
1101

>  <InsertionCode>


>  <Model>
1

>  <AltIds>


>  <MissingHeavyAtoms>
0

>  <ObservedFormula>
C42 N5 O6 S

>  <Name>
methyl ~{N}-[(2~{S})-3,3-dimethyl-1-[2-[(4~{R})-5-[[(2~{S})-3-methyl-1-oxidanylidene-1-(prop-2-enylamino)butan-2-yl]amino]-4-oxidanyl-5-oxidanylidene-4-[(4-prop-2-enylphenyl)methyl]pentyl]-2-[(4-thiophen-2-ylphenyl)methyl]hydrazinyl]-1-oxidanylidene-butan-2-yl]carbamate

>  <SystematicName>
methyl ~{N}-[(2~{S})-3,3-dimethyl-1-[2-[(4~{R})-5-[[(2~{S})-3-methyl-1-oxidanylidene-1-(prop-2-enylamino)butan-2-yl]amino]-4-oxidanyl-5-oxidanylidene-4-[(4-prop-2-enylphenyl)methyl]pentyl]-2-[(4-thiophen-2-ylphenyl)methyl]hydrazinyl]-1-oxidanylidene-butan-2-yl]carbamate

>  <Synonyms>


>  <Type>
NON-POLYMER

>  <Formula>
C42 H57 N5 O6 S

>  <MolecularWeight>
759.997

>  <ModifiedDate>
2019-05-10

>  <Parent>


>  <OneLetterCode>


>  <SubcomponentList>


>  <AmbiguousFlag>
N

>  <InChI>
InChI=1S/C42H57N5O6S/c1-9-13-30-15-17-31(18-16-30)27-42(52,39(50)44-35(29(3)4)37(48)43-24-10-2)23-12-25-47(46-38(49)36(41(5,6)7)45-40(51)53-8)28-32-19-21-33(22-20-32)34-14-11-26-54-34/h9-11,14-22,26,29,35-36,52H,1-2,12-13,23-25,27-28H2,3-8H3,(H,43,48)(H,44,50)(H,45,51)(H,46,49)/t35-,36+,42+/m0/s1

>  <InChIKey>
IBNVZQRVRDNWIL-FCSANXPSSA-N

>  <SMILES>
CC(C)[C@@H](C(=O)NCC=C)NC(=O)[C@@](CCCN(Cc1ccc(cc1)c2cccs2)NC(=O)[C@H](C(C)(C)C)NC(=O)OC)(Cc3ccc(cc3)CC=C)O

$$$$
