2J7B_NTZ_A_1446
  RCSB PDB08012017163D
Coordinates from PDB:2J7B:A:1446 Model:1 without hydrogens
 14 15  0  0  0  0            999 V2000
   34.3030   24.4830   38.9730   C 0  0  0  0  0  0  0  0  0  0  0  0
   35.0210   23.4660   38.1460   C 0  0  0  0  0  0  0  0  0  0  0  0
   35.2650   24.0260   36.7490   C 0  0  0  0  0  0  0  0  0  0  0  0
   34.0460   24.8430   36.2670   C 0  0  0  0  0  0  0  0  0  0  0  0
   33.8810   26.1370   37.1030   C 0  0  0  0  0  0  0  0  0  0  0  0
   32.6400   26.9400   36.7370   C 0  0  0  0  0  0  0  0  0  0  0  0
   33.8200   25.6260   38.4860   N 0  0  0  0  0  0  0  0  0  0  0  0
   33.1480   26.3780   39.4370   N 0  0  0  0  0  0  0  0  0  0  0  0
   33.2300   25.6160   40.5920   N 0  0  0  0  0  0  0  0  0  0  0  0
   33.9810   24.4530   40.2830   N 0  0  0  0  0  0  0  0  0  0  0  0
   36.2560   23.0390   38.7230   O 0  0  0  0  0  0  0  0  0  0  0  0
   35.5150   22.9010   35.8850   O 0  0  0  0  0  0  0  0  0  0  0  0
   34.2130   25.2280   34.9140   O 0  0  0  0  0  0  0  0  0  0  0  0
   31.4470   26.1970   37.0270   O 0  0  0  0  0  0  0  0  0  0  0  0
  1  2  1  0  0  0  0
  1  7  1  0  0  0  0
  1 10  2  0  0  0  0
  2  3  1  0  0  0  0
  2 11  1  0  0  0  0
  3  4  1  0  0  0  0
  3 12  1  0  0  0  0
  4  5  1  0  0  0  0
  4 13  1  0  0  0  0
  5  6  1  0  0  0  0
  5  7  1  0  0  0  0
  6 14  1  0  0  0  0
  7  8  1  0  0  0  0
  8  9  2  0  0  0  0
  9 10  1  0  0  0  0
M  END
>  <InstanceId>
2J7B_NTZ_A_1446

>  <ChemCompId>
NTZ

>  <PdbId>
2J7B

>  <ChainId>
A

>  <ResidueNumber>
1446

>  <InsertionCode>


>  <Model>
1

>  <AltIds>


>  <MissingHeavyAtoms>
0

>  <ObservedFormula>
C6 N4 O4

>  <Name>
NOJIRIMYCINE TETRAZOLE

>  <SystematicName>
(5R,6R,7S,8S)-5-(hydroxymethyl)-5,6,7,8-tetrahydro-[1,2,3,4]tetrazolo[5,1-f]pyridine-6,7,8-triol

>  <Synonyms>


>  <Type>
NON-POLYMER

>  <Formula>
C6 H10 N4 O4

>  <MolecularWeight>
202.168

>  <ModifiedDate>
2011-06-04

>  <Parent>


>  <OneLetterCode>


>  <SubcomponentList>


>  <AmbiguousFlag>
N

>  <InChI>
InChI=1S/C6H10N4O4/c11-1-2-3(12)4(13)5(14)6-7-8-9-10(2)6/h2-5,11-14H,1H2/t2-,3-,4+,5-/m1/s1

>  <InChIKey>
UCJXQRFJERKPOZ-SQOUGZDYSA-N

>  <SMILES>
C([C@@H]1[C@H]([C@@H]([C@H](c2n1nnn2)O)O)O)O

$$$$
