2GJ5_VD3_A_163
  RCSB PDB08012017033D
Coordinates from PDB:2GJ5:A:163 Model:1 without hydrogens
 28 30  0  0  0  0            999 V2000
   -0.3760    0.1720   24.5870   O 0  0  0  0  0  0  0  0  0  0  0  0
    0.7100    1.3280   21.4030   C 0  0  0  0  0  0  0  0  0  0  0  0
    0.4350    1.6960   22.8140   C 0  0  0  0  0  0  0  0  0  0  0  0
   -0.8320    1.0150   23.5110   C 0  0  0  0  0  0  0  0  0  0  0  0
   -1.6350    0.1660   22.4900   C 0  0  0  0  0  0  0  0  0  0  0  0
   -1.8270    0.8320   21.0410   C 0  0  0  0  0  0  0  0  0  0  0  0
   -3.0170    0.7230   20.3760   C 0  0  0  0  0  0  0  0  0  0  0  0
   -4.4060    1.3320   20.3160   C 0  0  0  0  0  0  0  0  0  0  0  0
   -4.6770    2.6370   19.8890   C 0  0  0  0  0  0  0  0  0  0  0  0
   -4.6590    2.1750   18.3350   C 0  0  0  0  0  0  0  0  0  0  0  0
   -0.5570    1.5740   20.5560   C 0  0  0  0  0  0  0  0  0  0  0  0
   -4.3550    3.2200   17.3230   C 0  0  0  0  0  0  0  0  0  0  0  0
   -4.6900    4.7220   17.6710   C 0  0  0  0  0  0  0  0  0  0  0  0
   -4.3770    5.1520   19.1110   C 0  0  0  0  0  0  0  0  0  0  0  0
   -3.7620    3.9740   19.9600   C 0  0  0  0  0  0  0  0  0  0  0  0
   -3.5680    4.7120   21.3800   C 0  0  0  0  0  0  0  0  0  0  0  0
   -3.2280    6.2690   21.0100   C 0  0  0  0  0  0  0  0  0  0  0  0
   -3.2090    6.2670   19.4350   C 0  0  0  0  0  0  0  0  0  0  0  0
   -5.8170    5.6360   19.6230   C 0  0  0  0  0  0  0  0  0  0  0  0
   -0.5150    2.3310   19.5340   C 0  0  0  0  0  0  0  0  0  0  0  0
   -3.5620    7.7220   18.7240   C 0  0  0  0  0  0  0  0  0  0  0  0
   -2.8980    7.7440   17.3660   C 0  0  0  0  0  0  0  0  0  0  0  0
   -3.0400    9.0810   19.3210   C 0  0  0  0  0  0  0  0  0  0  0  0
   -4.1810   10.2680   18.9580   C 0  0  0  0  0  0  0  0  0  0  0  0
   -3.2030   11.4000   18.5670   C 0  0  0  0  0  0  0  0  0  0  0  0
   -3.4180   12.8640   19.0180   C 0  0  0  0  0  0  0  0  0  0  0  0
   -2.1790   12.8600   19.7030   C 0  0  0  0  0  0  0  0  0  0  0  0
   -3.0820   14.1050   18.3630   C 0  0  0  0  0  0  0  0  0  0  0  0
  1  4  1  0  0  0  0
  2  3  1  0  0  0  0
  2 11  1  0  0  0  0
  3  4  1  0  0  0  0
  4  5  1  0  0  0  0
  5  6  1  0  0  0  0
  6  7  2  0  0  0  0
  6 11  1  0  0  0  0
  7  8  1  0  0  0  0
  8  9  2  0  0  0  0
  9 10  1  0  0  0  0
  9 15  1  0  0  0  0
 10 12  1  0  0  0  0
 11 20  2  0  0  0  0
 12 13  1  0  0  0  0
 13 14  1  0  0  0  0
 14 15  1  0  0  0  0
 14 18  1  0  0  0  0
 14 19  1  0  0  0  0
 15 16  1  0  0  0  0
 16 17  1  0  0  0  0
 17 18  1  0  0  0  0
 18 21  1  0  0  0  0
 21 22  1  0  0  0  0
 21 23  1  0  0  0  0
 23 24  1  0  0  0  0
 24 25  1  0  0  0  0
 25 26  1  0  0  0  0
 26 27  1  0  0  0  0
 26 28  1  0  0  0  0
M  END
>  <InstanceId>
2GJ5_VD3_A_163

>  <ChemCompId>
VD3

>  <PdbId>
2GJ5

>  <ChainId>
A

>  <ResidueNumber>
163

>  <InsertionCode>


>  <Model>
1

>  <AltIds>


>  <MissingHeavyAtoms>
0

>  <ObservedFormula>
C27 O

>  <Name>
(1S,3Z)-3-[(2E)-2-[(1R,3AR,7AS)-7A-METHYL-1-[(2R)-6-METHYLHEPTAN-2-YL]-2,3,3A,5,6,7-HEXAHYDRO-1H-INDEN-4-YLIDENE]ETHYLI DENE]-4-METHYLIDENE-CYCLOHEXAN-1-OL

>  <SystematicName>
(1S)-3-[2-[(1R,3aS,7aR)-7a-methyl-1-[(2R)-6-methylheptan-2-yl]-2,3,3a,5,6,7-hexahydro-1H-inden-4-ylidene]ethylidene]-4-methylidene-cyclohexan-1-ol

>  <Synonyms>
VITAMIN D3

>  <Type>
NON-POLYMER

>  <Formula>
C27 H44 O

>  <MolecularWeight>
384.638

>  <ModifiedDate>
2020-06-17

>  <Parent>


>  <OneLetterCode>


>  <SubcomponentList>


>  <AmbiguousFlag>
N

>  <InChI>
InChI=1S/C27H44O/c1-19(2)8-6-9-21(4)25-15-16-26-22(10-7-17-27(25,26)5)12-13-23-18-24(28)14-11-20(23)3/h12-13,19,21,24-26,28H,3,6-11,14-18H2,1-2,4-5H3/t21-,24+,25-,26+,27-/m1/s1

>  <InChIKey>
QYSXJUFSXHHAJI-RWDMXNMGSA-N

>  <SMILES>
CC(C)CCC[C@@H](C)[C@H]1CC[C@@H]2[C@@]1(CCCC2=CC=C3C[C@H](CCC3=C)O)C

$$$$
