3TIF_ADP_A_236
  RCSB PDB08012020343D
Coordinates from PDB:3TIF:A:236 Model:1 without hydrogens
 27 29  0  0  0  0            999 V2000
   30.6760    4.8350  -12.9890   P 0  0  0  0  0  0  0  0  0  0  0  0
   29.9120    5.3370  -14.1710   O 0  0  0  0  0  0  0  0  0  0  0  0
   29.7150    4.1720  -12.0200   O 0  0  0  0  0  0  0  0  0  0  0  0
   31.3610    5.9480  -12.2680   O 0  0  0  0  0  0  0  0  0  0  0  0
   31.8660    3.5110  -14.9890   P 0  0  0  0  0  0  0  0  0  0  0  0
   31.5610    2.1790  -15.6540   O 0  0  0  0  0  0  0  0  0  0  0  0
   32.6160    4.5780  -15.8650   O 0  0  0  0  0  0  0  0  0  0  0  0
   31.7520    3.7610  -13.4400   O 0  0  0  0  0  0  0  0  0  0  0  0
   33.2390    2.8070  -14.6770   O 0  0  0  0  0  0  0  0  0  0  0  0
   33.3520    1.5620  -14.0700   C 0  0  0  0  0  0  0  0  0  0  0  0
   34.7310    0.9910  -13.7970   C 0  0  0  0  0  0  0  0  0  0  0  0
   35.3480    0.4240  -14.9360   O 0  0  0  0  0  0  0  0  0  0  0  0
   35.6940    1.9810  -13.2020   C 0  0  0  0  0  0  0  0  0  0  0  0
   36.3230    1.5480  -12.0290   O 0  0  0  0  0  0  0  0  0  0  0  0
   36.6790    2.2090  -14.2200   C 0  0  0  0  0  0  0  0  0  0  0  0
   37.9490    2.4900  -13.7070   O 0  0  0  0  0  0  0  0  0  0  0  0
   36.6710    0.9710  -15.0570   C 0  0  0  0  0  0  0  0  0  0  0  0
   36.9860    1.1890  -16.4590   N 0  0  0  0  0  0  0  0  0  0  0  0
   36.2600    1.9240  -17.3250   C 0  0  0  0  0  0  0  0  0  0  0  0
   36.8500    1.8880  -18.5310   N 0  0  0  0  0  0  0  0  0  0  0  0
   37.9670    1.1200  -18.4150   C 0  0  0  0  0  0  0  0  0  0  0  0
   38.9550    0.7380  -19.3270   C 0  0  0  0  0  0  0  0  0  0  0  0
   38.8890    1.1700  -20.6670   N 0  0  0  0  0  0  0  0  0  0  0  0
   39.9660   -0.0440  -18.9220   N 0  0  0  0  0  0  0  0  0  0  0  0
   40.0270   -0.4630  -17.6430   C 0  0  0  0  0  0  0  0  0  0  0  0
   39.0920   -0.1180  -16.7380   N 0  0  0  0  0  0  0  0  0  0  0  0
   38.0590    0.6740  -17.1050   C 0  0  0  0  0  0  0  0  0  0  0  0
  1  2  2  0  0  0  0
  1  3  1  0  0  0  0
  1  4  1  0  0  0  0
  1  8  1  0  0  0  0
  5  6  2  0  0  0  0
  5  7  1  0  0  0  0
  5  8  1  0  0  0  0
  5  9  1  0  0  0  0
  9 10  1  0  0  0  0
 10 11  1  0  0  0  0
 11 12  1  0  0  0  0
 11 13  1  0  0  0  0
 12 17  1  0  0  0  0
 13 14  1  0  0  0  0
 13 15  1  0  0  0  0
 15 16  1  0  0  0  0
 15 17  1  0  0  0  0
 17 18  1  0  0  0  0
 18 19  1  0  0  0  0
 18 27  1  0  0  0  0
 19 20  2  0  0  0  0
 20 21  1  0  0  0  0
 21 22  1  0  0  0  0
 21 27  2  0  0  0  0
 22 23  1  0  0  0  0
 22 24  2  0  0  0  0
 24 25  1  0  0  0  0
 25 26  2  0  0  0  0
 26 27  1  0  0  0  0
M  END
>  <InstanceId>
3TIF_ADP_A_236

>  <ChemCompId>
ADP

>  <PdbId>
3TIF

>  <ChainId>
A

>  <ResidueNumber>
236

>  <InsertionCode>


>  <Model>
1

>  <AltIds>


>  <MissingHeavyAtoms>
0

>  <ObservedFormula>
C10 N5 O10 P2

>  <Name>
ADENOSINE-5'-DIPHOSPHATE

>  <SystematicName>
[(2R,3S,4R,5R)-5-(6-aminopurin-9-yl)-3,4-dihydroxy-oxolan-2-yl]methyl phosphono hydrogen phosphate

>  <Synonyms>


>  <Type>
NON-POLYMER

>  <Formula>
C10 H15 N5 O10 P2

>  <MolecularWeight>
427.201

>  <ModifiedDate>
2011-06-04

>  <Parent>
A

>  <OneLetterCode>


>  <SubcomponentList>


>  <AmbiguousFlag>
N

>  <InChI>
InChI=1S/C10H15N5O10P2/c11-8-5-9(13-2-12-8)15(3-14-5)10-7(17)6(16)4(24-10)1-23-27(21,22)25-26(18,19)20/h2-4,6-7,10,16-17H,1H2,(H,21,22)(H2,11,12,13)(H2,18,19,20)/t4-,6-,7-,10-/m1/s1

>  <InChIKey>
XTWYTFMLZFPYCI-KQYNXXCUSA-N

>  <SMILES>
c1nc(c2c(n1)n(cn2)[C@H]3[C@@H]([C@@H]([C@H](O3)CO[P@](=O)(O)OP(=O)(O)O)O)O)N

$$$$
