2YZ3_M5P_A_401
  RCSB PDB08012018253D
Coordinates from PDB:2YZ3:A:401 Model:1 without hydrogens
 15 15  0  0  0  0            999 V2000
   34.5260    5.8250  107.5980   C 0  0  0  0  0  0  0  0  0  0  0  0
   35.6080    5.2180  106.9670   C 0  0  0  0  0  0  0  0  0  0  0  0
   36.9080    5.5610  107.3290   C 0  0  0  0  0  0  0  0  0  0  0  0
   37.1230    6.5060  108.3300   C 0  0  0  0  0  0  0  0  0  0  0  0
   36.0420    7.1110  108.9610   C 0  0  0  0  0  0  0  0  0  0  0  0
   34.7400    6.7780  108.5890   C 0  0  0  0  0  0  0  0  0  0  0  0
   33.5480    7.5720  109.1320   C 0  0  0  0  0  0  0  0  0  0  0  0
   33.7360    9.0420  108.7510   C 0  0  0  0  0  0  0  0  0  0  0  0
   32.4350    9.7360  108.3440   C 0  0  0  0  0  0  0  0  0  0  0  0
   32.7740   11.0190  107.5820   C 0  0  0  0  0  0  0  0  0  0  0  0
   31.5750   11.5870  106.8220   C 0  0  0  0  0  0  0  0  0  0  0  0
   31.4660   11.3770  105.6130   O 0  0  0  0  0  0  0  0  0  0  0  0
   30.7330   12.2740  107.3930   O 0  0  0  0  0  0  0  0  0  0  0  0
   33.3840   12.0800  108.4950   C 0  0  0  0  0  0  0  0  0  0  0  0
   35.1490   12.3230  108.0790   S 0  0  0  0  0  0  0  0  0  0  0  0
  1  2  1  0  0  0  0
  1  6  2  0  0  0  0
  2  3  2  0  0  0  0
  3  4  1  0  0  0  0
  4  5  2  0  0  0  0
  5  6  1  0  0  0  0
  6  7  1  0  0  0  0
  7  8  1  0  0  0  0
  8  9  1  0  0  0  0
  9 10  1  0  0  0  0
 10 11  1  0  0  0  0
 10 14  1  0  0  0  0
 11 12  2  0  0  0  0
 11 13  1  0  0  0  0
 14 15  1  0  0  0  0
M  END
>  <InstanceId>
2YZ3_M5P_A_401

>  <ChemCompId>
M5P

>  <PdbId>
2YZ3

>  <ChainId>
A

>  <ResidueNumber>
401

>  <InsertionCode>


>  <Model>
1

>  <AltIds>


>  <MissingHeavyAtoms>
0

>  <ObservedFormula>
C12 O2 S

>  <Name>
(S)-2-(MERCAPTOMETHYL)-5-PHENYLPENTANOIC ACID

>  <SystematicName>
(2S)-5-phenyl-2-(sulfanylmethyl)pentanoic acid

>  <Synonyms>


>  <Type>
NON-POLYMER

>  <Formula>
C12 H16 O2 S

>  <MolecularWeight>
224.319

>  <ModifiedDate>
2011-06-04

>  <Parent>


>  <OneLetterCode>


>  <SubcomponentList>


>  <AmbiguousFlag>


>  <InChI>
InChI=1S/C12H16O2S/c13-12(14)11(9-15)8-4-7-10-5-2-1-3-6-10/h1-3,5-6,11,15H,4,7-9H2,(H,13,14)/t11-/m1/s1

>  <InChIKey>
HEPZYEZEUMVYDV-LLVKDONJSA-N

>  <SMILES>
c1ccc(cc1)CCC[C@H](CS)C(=O)O

$$$$
