3RM9_613_A_1
  RCSB PDB08012020223D
Coordinates from PDB:3RM9:A:1 Model:1 without hydrogens
 16 17  0  0  0  0            999 V2000
   33.7470   -7.2880    3.4640   C 0  0  0  0  0  0  0  0  0  0  0  0
   33.9840   -5.5510    5.1930   N 0  0  0  0  0  0  0  0  0  0  0  0
   33.6870  -11.2930    3.5750  Cl 0  0  0  0  0  0  0  0  0  0  0  0
   33.6740   -8.6330    3.0710   C 0  0  0  0  0  0  0  0  0  0  0  0
   33.8640   -2.7650    5.8930   N 0  0  0  0  0  0  0  0  0  0  0  0
   33.7700   -9.6350    4.0350   C 0  0  0  0  0  0  0  0  0  0  0  0
   33.8330   -0.3270    5.5670   N 0  0  0  0  0  0  0  0  0  0  0  0
   33.9390   -9.2950    5.3740   C 0  0  0  0  0  0  0  0  0  0  0  0
   31.9020   -1.3750    6.4540   N 0  0  0  0  0  0  0  0  0  0  0  0
   34.0120   -7.9450    5.7550   C 0  0  0  0  0  0  0  0  0  0  0  0
   33.9240   -6.8930    4.8150   C 0  0  0  0  0  0  0  0  0  0  0  0
   33.1150   -5.1070    6.2970   C 0  0  0  0  0  0  0  0  0  0  0  0
   33.6110   -3.8120    6.9330   C 0  0  0  0  0  0  0  0  0  0  0  0
   34.6960   -3.2100    4.7310   C 0  0  0  0  0  0  0  0  0  0  0  0
   34.1820   -4.5290    4.1440   C 0  0  0  0  0  0  0  0  0  0  0  0
   33.1780   -1.5180    5.8940   C 0  0  0  0  0  0  0  0  0  0  0  0
  1  4  2  0  0  0  0
  1 11  1  0  0  0  0
  2 11  1  0  0  0  0
  2 12  1  0  0  0  0
  2 15  1  0  0  0  0
  3  6  1  0  0  0  0
  4  6  1  0  0  0  0
  5 13  1  0  0  0  0
  5 14  1  0  0  0  0
  5 16  1  0  0  0  0
  6  8  2  0  0  0  0
  7 16  2  0  0  0  0
  8 10  1  0  0  0  0
  9 16  1  0  0  0  0
 10 11  2  0  0  0  0
 12 13  1  0  0  0  0
 14 15  1  0  0  0  0
M  END
>  <InstanceId>
3RM9_613_A_1

>  <ChemCompId>
613

>  <PdbId>
3RM9

>  <ChainId>
A

>  <ResidueNumber>
1

>  <InsertionCode>


>  <Model>
1

>  <AltIds>


>  <MissingHeavyAtoms>
0

>  <ObservedFormula>
C11 N4 Cl

>  <Name>
4-(4-chlorophenyl)piperazine-1-carboximidamide

>  <SystematicName>
4-(4-chlorophenyl)piperazine-1-carboximidamide

>  <Synonyms>


>  <Type>
NON-POLYMER

>  <Formula>
C11 H15 Cl N4

>  <MolecularWeight>
238.717

>  <ModifiedDate>
2011-08-19

>  <Parent>


>  <OneLetterCode>


>  <SubcomponentList>


>  <AmbiguousFlag>
N

>  <InChI>
InChI=1S/C11H15ClN4/c12-9-1-3-10(4-2-9)15-5-7-16(8-6-15)11(13)14/h1-4H,5-8H2,(H3,13,14)

>  <InChIKey>
HYVSDWLVUBTZRD-UHFFFAOYSA-N

>  <SMILES>
[H]/N=C(\N)/N1CCN(CC1)c2ccc(cc2)Cl

$$$$
