4HU1_V13_B_302
  RCSB PDB08012021573D
Coordinates from PDB:4HU1:B:302 Model:1 without hydrogens
 20 20  0  0  0  0            999 V2000
  -38.8150  -33.0830   20.5040   O 0  0  0  0  0  0  0  0  0  0  0  0
  -39.4970  -34.0380   21.4600   S 0  0  0  0  0  0  0  0  0  0  0  0
  -40.1780  -33.0160   22.3640   O 0  0  0  0  0  0  0  0  0  0  0  0
  -40.7800  -34.9630   20.5910   C 0  0  0  0  0  0  0  0  0  0  0  0
  -40.0650  -36.2120   20.1650   C 0  0  0  0  0  0  0  0  0  0  0  0
  -40.0920  -37.0560   21.2690   O 0  0  0  0  0  0  0  0  0  0  0  0
  -38.0820  -34.8380   22.3240   C 0  0  0  0  0  0  0  0  0  0  0  0
  -36.9100  -35.2260   21.6410   C 0  0  0  0  0  0  0  0  0  0  0  0
  -36.7550  -34.9670   20.3370   F 0  0  0  0  0  0  0  0  0  0  0  0
  -35.8580  -35.8520   22.2900   C 0  0  0  0  0  0  0  0  0  0  0  0
  -34.7220  -36.1540   21.6290   F 0  0  0  0  0  0  0  0  0  0  0  0
  -35.9780  -36.1400   23.6670   C 0  0  0  0  0  0  0  0  0  0  0  0
  -34.5760  -36.9180   24.4370   S 0  0  0  0  0  0  0  0  0  0  0  0
  -33.5730  -35.9080   24.2420   O 0  0  0  0  0  0  0  0  0  0  0  0
  -34.7300  -37.1320   26.1320   N 0  0  0  0  0  0  0  0  0  0  0  0
  -34.2510  -38.2300   23.7830   O 0  0  0  0  0  0  0  0  0  0  0  0
  -37.1440  -35.7850   24.3290   C 0  0  0  0  0  0  0  0  0  0  0  0
  -37.4030  -36.0640   25.5860   F 0  0  0  0  0  0  0  0  0  0  0  0
  -38.1810  -35.1740   23.6430   C 0  0  0  0  0  0  0  0  0  0  0  0
  -39.2750  -34.8730   24.3270   F 0  0  0  0  0  0  0  0  0  0  0  0
  5  4  1  0  0  0  0
  5  6  1  0  0  0  0
  9  8  1  0  0  0  0
  1  2  2  0  0  0  0
  4  2  1  0  0  0  0
  2  7  1  0  0  0  0
  2  3  2  0  0  0  0
 11 10  1  0  0  0  0
  8 10  2  0  0  0  0
  8  7  1  0  0  0  0
 10 12  1  0  0  0  0
  7 19  2  0  0  0  0
 19 20  1  0  0  0  0
 19 17  1  0  0  0  0
 12 17  2  0  0  0  0
 12 13  1  0  0  0  0
 16 13  2  0  0  0  0
 14 13  2  0  0  0  0
 17 18  1  0  0  0  0
 13 15  1  0  0  0  0
M  END
>  <InstanceId>
4HU1_V13_B_302

>  <ChemCompId>
V13

>  <PdbId>
4HU1

>  <ChainId>
B

>  <ResidueNumber>
302

>  <InsertionCode>


>  <Model>
1

>  <AltIds>


>  <MissingHeavyAtoms>
0

>  <ObservedFormula>
C8 N O5 S2 F4

>  <Name>
2,3,5,6-tetrafluoro-4-[(2-hydroxyethyl)sulfonyl]benzenesulfonamide

>  <SystematicName>
2,3,5,6-tetrakis(fluoranyl)-4-(2-hydroxyethylsulfonyl)benzenesulfonamide

>  <Synonyms>


>  <Type>
NON-POLYMER

>  <Formula>
C8 H7 F4 N O5 S2

>  <MolecularWeight>
337.268

>  <ModifiedDate>
2013-04-05

>  <Parent>


>  <OneLetterCode>


>  <SubcomponentList>


>  <AmbiguousFlag>
N

>  <InChI>
InChI=1S/C8H7F4NO5S2/c9-3-5(11)8(20(13,17)18)6(12)4(10)7(3)19(15,16)2-1-14/h14H,1-2H2,(H2,13,17,18)

>  <InChIKey>
WZGGLNWNBUCLIP-UHFFFAOYSA-N

>  <SMILES>
C(CS(=O)(=O)c1c(c(c(c(c1F)F)S(=O)(=O)N)F)F)O

$$$$
