3BGS_DIH_A_301
  RCSB PDB08012018383D
Coordinates from PDB:3BGS:A:301 Model:1 without hydrogens
 19 21  0  0  0  0            999 V2000
   17.4940   12.1340   59.8980   O 0  0  0  0  0  0  0  0  0  0  0  0
   16.7320   10.9600   60.1650   C 0  0  0  0  0  0  0  0  0  0  0  0
   15.3500   11.3370   60.7030   C 0  0  0  0  0  0  0  0  0  0  0  0
   14.4050   11.3140   59.5270   C 0  0  0  0  0  0  0  0  0  0  0  0
   15.2100   12.7530   61.2600   C 0  0  0  0  0  0  0  0  0  0  0  0
   14.1980   12.6870   62.3130   O 0  0  0  0  0  0  0  0  0  0  0  0
   14.7430   13.6140   60.0630   C 0  0  0  0  0  0  0  0  0  0  0  0
   14.6250   12.6590   58.9290   N 0  3  0  0  0  0  0  0  0  0  0  0
   13.6400   12.9170   57.8490   C 0  0  0  0  0  0  0  0  0  0  0  0
   14.2510   12.1500   56.6800   C 0  0  0  0  0  0  0  0  0  0  0  0
   15.3140   12.5680   55.8720   C 0  0  0  0  0  0  0  0  0  0  0  0
   15.6060   11.6060   54.9580   N 0  0  0  0  0  0  0  0  0  0  0  0
   14.7670   10.5260   55.1120   C 0  0  0  0  0  0  0  0  0  0  0  0
   14.5940    9.2850   54.4940   C 0  0  0  0  0  0  0  0  0  0  0  0
   15.3310    8.9110   53.5410   O 0  0  0  0  0  0  0  0  0  0  0  0
   13.6190    8.4360   54.9600   N 0  0  0  0  0  0  0  0  0  0  0  0
   12.8200    8.7810   55.9870   C 0  0  0  0  0  0  0  0  0  0  0  0
   12.9580    9.9320   56.6180   N 0  0  0  0  0  0  0  0  0  0  0  0
   13.9200   10.8040   56.1780   C 0  0  0  0  0  0  0  0  0  0  0  0
 15 14  2  0  0  0  0
 14 16  1  0  0  0  0
 14 13  1  0  0  0  0
 12 13  1  0  0  0  0
 12 11  1  0  0  0  0
 16 17  1  0  0  0  0
 13 19  2  0  0  0  0
 11 10  2  0  0  0  0
 17 18  2  0  0  0  0
 19 10  1  0  0  0  0
 19 18  1  0  0  0  0
 10  9  1  0  0  0  0
  9  8  1  0  0  0  0
  8  4  1  0  0  0  0
  8  7  1  0  0  0  0
  4  3  1  0  0  0  0
  7  5  1  0  0  0  0
  1  2  1  0  0  0  0
  2  3  1  0  0  0  0
  3  5  1  0  0  0  0
  5  6  1  0  0  0  0
M  CHG  1   8   1
M  END
>  <InstanceId>
3BGS_DIH_A_301

>  <ChemCompId>
DIH

>  <PdbId>
3BGS

>  <ChainId>
A

>  <ResidueNumber>
301

>  <InsertionCode>


>  <Model>
1

>  <AltIds>


>  <MissingHeavyAtoms>
0

>  <ObservedFormula>
C12 N4 O3

>  <Name>
7-[[(3R,4R)-3-(hydroxymethyl)-4-oxidanyl-pyrrolidin-1-ium-1-yl]methyl]-3,5-dihydropyrrolo[3,2-d]pyrimidin-4-one

>  <SystematicName>
7-[[(3~{R},4~{R})-3-(hydroxymethyl)-4-oxidanyl-pyrrolidin-1-ium-1-yl]methyl]-3,5-dihydropyrrolo[3,2-d]pyrimidin-4-one

>  <Synonyms>


>  <Type>
NON-POLYMER

>  <Formula>
C12 H17 N4 O3

>  <MolecularWeight>
265.288

>  <ModifiedDate>
2018-12-05

>  <Parent>


>  <OneLetterCode>


>  <SubcomponentList>


>  <AmbiguousFlag>
N

>  <InChI>
InChI=1S/C12H16N4O3/c17-5-8-3-16(4-9(8)18)2-7-1-13-11-10(7)14-6-15-12(11)19/h1,6,8-9,13,17-18H,2-5H2,(H,14,15,19)/p+1/t8-,9+/m1/s1

>  <InChIKey>
AFNHHLILYQEHKK-BDAKNGLRSA-O

>  <SMILES>
c1c(c2c([nH]1)C(=O)NC=N2)C[NH+]3C[C@@H]([C@H](C3)O)CO

$$$$
