5GSA_73K_A_501
  RCSB PDB08022001313D
Coordinates from PDB:5GSA:A:501 Model:1 without hydrogens
 26 29  0  0  0  0            999 V2000
  -31.0870   75.1570    5.6230   C 0  0  0  0  0  0  0  0  0  0  0  0
  -31.7340   75.4680    6.7670   C 0  0  0  0  0  0  0  0  0  0  0  0
  -32.1330   74.3200    7.6040   C 0  0  0  0  0  0  0  0  0  0  0  0
  -32.2930   72.3840    8.2020   C 0  0  0  0  0  0  0  0  0  0  0  0
  -28.4660   71.0560    5.4090   C 0  0  0  0  0  0  0  0  0  0  0  0
  -28.1230   70.2130    6.3760   C 0  0  0  0  0  0  0  0  0  0  0  0
  -26.6880   70.4560    6.5290   C 0  0  0  0  0  0  0  0  0  0  0  0
  -26.4570   71.3990    5.6240   C 0  0  0  0  0  0  0  0  0  0  0  0
  -33.4130   77.2630    7.3550   C 0  0  0  0  0  0  0  0  0  0  0  0
  -33.7460   78.6050    7.5820   C 0  0  0  0  0  0  0  0  0  0  0  0
  -32.7350   79.5910    7.4920   C 0  0  0  0  0  0  0  0  0  0  0  0
  -31.3960   79.2390    7.2060   C 0  0  0  0  0  0  0  0  0  0  0  0
  -31.0550   77.8940    7.0170   C 0  0  0  0  0  0  0  0  0  0  0  0
  -34.2130   81.5750    6.2820   C 0  0  0  0  0  0  0  0  0  0  0  0
  -31.8050   73.1140    7.2320   N 0  0  0  0  0  0  0  0  0  0  0  0
  -31.1150   72.8270    6.1240   C 0  0  0  0  0  0  0  0  0  0  0  0
  -30.7750   73.7730    5.3410   N 0  0  0  0  0  0  0  0  0  0  0  0
  -32.0680   76.9020    7.0930   C 0  0  0  0  0  0  0  0  0  0  0  0
  -30.7720   71.6000    5.8350   N 0  0  0  0  0  0  0  0  0  0  0  0
  -29.8100   71.2530    4.8010   C 0  0  0  0  0  0  0  0  0  0  0  0
  -32.7840   74.3880    8.7050   N 0  0  0  0  0  0  0  0  0  0  0  0
  -32.8870   73.0320    9.1200   N 0  0  0  0  0  0  0  0  0  0  0  0
  -27.5110   71.8180    4.9020   O 0  0  0  0  0  0  0  0  0  0  0  0
  -33.1480   81.3080    7.7230   S 0  0  0  0  0  0  0  0  0  0  0  0
  -33.9980   81.4710    8.9020   O 0  0  0  0  0  0  0  0  0  0  0  0
  -31.9090   82.0750    7.5880   O 0  0  0  0  0  0  0  0  0  0  0  0
 20  5  1  0  0  0  0
 20 19  1  0  0  0  0
 23  5  1  0  0  0  0
 23  8  1  0  0  0  0
 17  1  1  0  0  0  0
 17 16  2  0  0  0  0
  5  6  2  0  0  0  0
  1  2  2  0  0  0  0
  8  7  2  0  0  0  0
 19 16  1  0  0  0  0
 16 15  1  0  0  0  0
 14 24  1  0  0  0  0
  6  7  1  0  0  0  0
  2 18  1  0  0  0  0
  2  3  1  0  0  0  0
 13 18  2  0  0  0  0
 13 12  1  0  0  0  0
 18  9  1  0  0  0  0
 12 11  2  0  0  0  0
 15  3  1  0  0  0  0
 15  4  1  0  0  0  0
  9 10  2  0  0  0  0
 11 10  1  0  0  0  0
 11 24  1  0  0  0  0
 26 24  2  0  0  0  0
  3 21  2  0  0  0  0
 24 25  2  0  0  0  0
  4 22  2  0  0  0  0
 21 22  1  0  0  0  0
M  END
>  <InstanceId>
5GSA_73K_A_501

>  <ChemCompId>
73K

>  <PdbId>
5GSA

>  <ChainId>
A

>  <ResidueNumber>
501

>  <InsertionCode>


>  <Model>
1

>  <AltIds>


>  <MissingHeavyAtoms>
0

>  <ObservedFormula>
C17 N5 O3 S

>  <Name>
N-(furan-2-ylmethyl)-8-(4-methylsulfonylphenyl)-[1,2,4]triazolo[4,3-c]pyrimidin-5-amine

>  <SystematicName>
~{N}-(furan-2-ylmethyl)-8-(4-methylsulfonylphenyl)-[1,2,4]triazolo[4,3-c]pyrimidin-5-amine

>  <Synonyms>


>  <Type>
NON-POLYMER

>  <Formula>
C17 H15 N5 O3 S

>  <MolecularWeight>
369.398

>  <ModifiedDate>
2017-01-26

>  <Parent>


>  <OneLetterCode>


>  <SubcomponentList>


>  <AmbiguousFlag>
N

>  <InChI>
InChI=1S/C17H15N5O3S/c1-26(23,24)14-6-4-12(5-7-14)15-10-19-17(22-11-20-21-16(15)22)18-9-13-3-2-8-25-13/h2-8,10-11H,9H2,1H3,(H,18,19)

>  <InChIKey>
DYIRSNMPIZZNBK-UHFFFAOYSA-N

>  <SMILES>
CS(=O)(=O)c1ccc(cc1)c2cnc(n3c2nnc3)NCc4ccco4

$$$$
