5BRY_4UY_B_201
  RCSB PDB08022000533D
Coordinates from PDB:5BRY:B:201 Model:1 without hydrogens
 41 44  0  0  0  0            999 V2000
   21.0980   27.7820   14.7140   C 0  0  0  0  0  0  0  0  0  0  0  0
   19.7430   27.7480   14.3810   C 0  0  0  0  0  0  0  0  0  0  0  0
   18.9560   26.6410   14.6860   C 0  0  0  0  0  0  0  0  0  0  0  0
   19.5030   25.5270   15.3360   C 0  0  0  0  0  0  0  0  0  0  0  0
   20.8600   25.5650   15.6660   C 0  0  0  0  0  0  0  0  0  0  0  0
   21.6430   26.6760   15.3580   C 0  0  0  0  0  0  0  0  0  0  0  0
   18.5050   24.1400   15.7140   S 0  0  0  0  0  0  0  0  0  0  0  0
   17.4030   24.0310   14.7120   O 0  0  0  0  0  0  0  0  0  0  0  0
   19.3380   22.9030   15.8050   O 0  0  0  0  0  0  0  0  0  0  0  0
   17.8100   24.3160   17.2040   N 0  0  0  0  0  0  0  0  0  0  0  0
   18.7330   24.6360   18.2770   C 0  0  0  0  0  0  0  0  0  0  0  0
   18.4020   23.9830   19.6270   C 0  0  0  0  0  0  0  0  0  0  0  0
   18.4280   22.4480   19.5450   C 0  0  0  0  0  0  0  0  0  0  0  0
   19.4070   24.4340   20.7020   C 0  0  0  0  0  0  0  0  0  0  0  0
   16.5760   25.0840   17.2040   C 0  0  0  0  0  0  0  0  0  0  0  0
   15.4170   24.2080   17.6990   C 0  0  0  0  0  0  0  0  0  0  0  0
   14.2720   25.0260   17.9930   O 0  0  0  0  0  0  0  0  0  0  0  0
   15.0420   23.1060   16.7120   C 0  0  0  0  0  0  0  0  0  0  0  0
   14.1660   22.1240   17.3330   N 0  0  0  0  0  0  0  0  0  0  0  0
   14.4080   20.8540   17.6560   C 0  0  0  0  0  0  0  0  0  0  0  0
   15.5200   20.3520   17.4750   O 0  0  0  0  0  0  0  0  0  0  0  0
   13.3280   20.2280   18.1940   O 0  0  0  0  0  0  0  0  0  0  0  0
   13.4430   18.8330   18.5090   C 0  0  0  0  0  0  0  0  0  0  0  0
   12.9500   18.6650   19.9660   C 0  0  0  0  0  0  0  0  0  0  0  0
   11.5300   18.7350   19.8470   O 0  0  0  0  0  0  0  0  0  0  0  0
   11.1190   18.1620   18.6070   C 0  0  0  0  0  0  0  0  0  0  0  0
   10.2710   19.1190   17.9350   O 0  0  0  0  0  0  0  0  0  0  0  0
   10.9240   19.5800   16.7640   C 0  0  0  0  0  0  0  0  0  0  0  0
   12.0090   18.5540   16.3900   C 0  0  0  0  0  0  0  0  0  0  0  0
   12.3800   18.0000   17.7850   C 0  0  0  0  0  0  0  0  0  0  0  0
   11.3980   17.4650   15.6110   N 0  0  0  0  0  0  0  0  0  0  0  0
   11.3780   17.7300   14.1610   C 0  0  0  0  0  0  0  0  0  0  0  0
   14.3020   23.6460   15.4790   C 0  0  0  0  0  0  0  0  0  0  0  0
   12.6990   22.0360   14.3260   C 0  0  0  0  0  0  0  0  0  0  0  0
   12.4160   20.9360   13.5060   C 0  0  0  0  0  0  0  0  0  0  0  0
   13.4530   20.2880   12.8470   C 0  0  0  0  0  0  0  0  0  0  0  0
   14.7680   20.7090   13.0590   C 0  0  0  0  0  0  0  0  0  0  0  0
   15.0400   21.8040   13.8920   C 0  0  0  0  0  0  0  0  0  0  0  0
   13.9990   22.4720   14.5300   C 0  0  0  0  0  0  0  0  0  0  0  0
   21.7960   28.8990   14.3830   O 0  0  0  0  0  0  0  0  0  0  0  0
   23.1890   28.8970   14.6470   C 0  0  0  0  0  0  0  0  0  0  0  0
 36 37  2  0  0  0  0
 36 35  1  0  0  0  0
 37 38  1  0  0  0  0
 35 34  2  0  0  0  0
 38 39  2  0  0  0  0
 32 31  1  0  0  0  0
 34 39  1  0  0  0  0
  2  3  2  0  0  0  0
  2  1  1  0  0  0  0
 40 41  1  0  0  0  0
 40  1  1  0  0  0  0
 39 33  1  0  0  0  0
  3  4  1  0  0  0  0
  8  7  2  0  0  0  0
  1  6  2  0  0  0  0
  4  5  2  0  0  0  0
  4  7  1  0  0  0  0
  6  5  1  0  0  0  0
 33 18  1  0  0  0  0
 31 29  1  0  0  0  0
  7  9  2  0  0  0  0
  7 10  1  0  0  0  0
 29 28  1  0  0  0  0
 29 30  1  0  0  0  0
 18 19  1  0  0  0  0
 18 16  1  0  0  0  0
 28 27  1  0  0  0  0
 15 10  1  0  0  0  0
 15 16  1  0  0  0  0
 10 11  1  0  0  0  0
 19 20  1  0  0  0  0
 21 20  2  0  0  0  0
 20 22  1  0  0  0  0
 16 17  1  0  0  0  0
 30 23  1  0  0  0  0
 30 26  1  0  0  0  0
 27 26  1  0  0  0  0
 22 23  1  0  0  0  0
 11 12  1  0  0  0  0
 23 24  1  0  0  0  0
 26 25  1  0  0  0  0
 13 12  1  0  0  0  0
 12 14  1  0  0  0  0
 25 24  1  0  0  0  0
M  END
>  <InstanceId>
5BRY_4UY_B_201

>  <ChemCompId>
4UY

>  <PdbId>
5BRY

>  <ChainId>
B

>  <ResidueNumber>
201

>  <InsertionCode>


>  <Model>
1

>  <AltIds>


>  <MissingHeavyAtoms>
0

>  <ObservedFormula>
C29 N3 O8 S

>  <Name>
(3R,3aS,4R,6aR)-4-(methylamino)hexahydrofuro[2,3-b]furan-3-yl [(2S,3R)-3-hydroxy-4-{[(4-methoxyphenyl)sulfonyl](2-methylpropyl)amino}-1-phenylbutan-2-yl]carbamate

>  <SystematicName>
[(3R,3aS,4R,6aR)-3-(methylamino)-2,3,3a,4,5,6a-hexahydrofuro[2,3-b]furan-4-yl] N-[(2S,3R)-4-[(4-methoxyphenyl)sulfonyl-(2-methylpropyl)amino]-3-oxidanyl-1-phenyl-butan-2-yl]carbamate

>  <Synonyms>


>  <Type>
NON-POLYMER

>  <Formula>
C29 H41 N3 O8 S

>  <MolecularWeight>
591.716

>  <ModifiedDate>
2015-09-04

>  <Parent>


>  <OneLetterCode>


>  <SubcomponentList>


>  <AmbiguousFlag>
N

>  <InChI>
InChI=1S/C29H41N3O8S/c1-19(2)15-32(41(35,36)22-12-10-21(37-4)11-13-22)16-25(33)23(14-20-8-6-5-7-9-20)31-29(34)40-26-18-39-28-27(26)24(30-3)17-38-28/h5-13,19,23-28,30,33H,14-18H2,1-4H3,(H,31,34)/t23-,24-,25+,26-,27-,28+/m0/s1

>  <InChIKey>
RTQZESJLDDKIAO-HJCZHRQASA-N

>  <SMILES>
CC(C)CN(C[C@H]([C@H](Cc1ccccc1)NC(=O)O[C@H]2CO[C@@H]3[C@H]2[C@H](CO3)NC)O)S(=O)(=O)c4ccc(cc4)OC

$$$$
