3T0B_IPT_A_2001
  RCSB PDB08012020313D
Coordinates from PDB:3T0B:A:2001 Model:1 without hydrogens
 15 15  0  0  0  0            999 V2000
  -14.8130  -27.5580  -26.1290   C 0  0  0  0  0  0  0  0  0  0  0  0
  -13.4780  -27.3620  -25.3940   C 0  0  0  0  0  0  0  0  0  0  0  0
  -13.5430  -26.2460  -24.5130   O 0  0  0  0  0  0  0  0  0  0  0  0
  -12.2960  -27.1720  -26.3490   C 0  0  0  0  0  0  0  0  0  0  0  0
  -11.0720  -27.2180  -25.6120   O 0  0  0  0  0  0  0  0  0  0  0  0
  -12.2850  -28.2570  -27.4240   C 0  0  0  0  0  0  0  0  0  0  0  0
  -11.9260  -29.5160  -26.8270   O 0  0  0  0  0  0  0  0  0  0  0  0
  -13.6730  -28.3040  -28.0770   C 0  0  0  0  0  0  0  0  0  0  0  0
  -14.6490  -28.6080  -27.0850   O 0  0  0  0  0  0  0  0  0  0  0  0
  -13.8300  -29.3120  -29.2030   C 0  0  0  0  0  0  0  0  0  0  0  0
  -12.7310  -29.2430  -30.1150   O 0  0  0  0  0  0  0  0  0  0  0  0
  -16.0700  -28.0390  -24.9790   S 0  0  0  0  0  0  0  0  0  0  0  0
  -17.6840  -28.2500  -25.6890   C 0  0  0  0  0  0  0  0  0  0  0  0
  -18.6780  -27.3260  -24.9880   C 0  0  0  0  0  0  0  0  0  0  0  0
  -17.7310  -28.0770  -27.2060   C 0  0  0  0  0  0  0  0  0  0  0  0
  1  2  1  0  0  0  0
  1  9  1  0  0  0  0
  1 12  1  0  0  0  0
  2  3  1  0  0  0  0
  2  4  1  0  0  0  0
  4  5  1  0  0  0  0
  4  6  1  0  0  0  0
  6  7  1  0  0  0  0
  6  8  1  0  0  0  0
  8  9  1  0  0  0  0
  8 10  1  0  0  0  0
 10 11  1  0  0  0  0
 12 13  1  0  0  0  0
 13 14  1  0  0  0  0
 13 15  1  0  0  0  0
M  END
>  <InstanceId>
3T0B_IPT_A_2001

>  <ChemCompId>
IPT

>  <PdbId>
3T0B

>  <ChainId>
A

>  <ResidueNumber>
2001

>  <InsertionCode>


>  <Model>
1

>  <AltIds>


>  <MissingHeavyAtoms>
0

>  <ObservedFormula>
C9 O5 S

>  <Name>
1-methylethyl 1-thio-beta-D-galactopyranoside

>  <SystematicName>
(2R,3R,4S,5R,6S)-2-(hydroxymethyl)-6-propan-2-ylsulfanyl-oxane-3,4,5-triol

>  <Synonyms>
ISOPROPYL-1-BETA-D-THIOGALACTOSIDE; 1-(ISOPROPYLTHIO)-BETA-GALACTOPYRANSIDE; 1-methylethyl 1-thio-beta-D-galactoside; 1-methylethyl 1-thio-D-galactoside; 1-methylethyl 1-thio-galactoside

>  <Type>
D-saccharide

>  <Formula>
C9 H18 O5 S

>  <MolecularWeight>
238.301

>  <ModifiedDate>
2020-07-17

>  <Parent>


>  <OneLetterCode>


>  <SubcomponentList>


>  <AmbiguousFlag>
N

>  <InChI>
InChI=1S/C9H18O5S/c1-4(2)15-9-8(13)7(12)6(11)5(3-10)14-9/h4-13H,3H2,1-2H3/t5-,6+,7+,8-,9+/m1/s1

>  <InChIKey>
BPHPUYQFMNQIOC-NXRLNHOXSA-N

>  <SMILES>
CC(C)S[C@H]1[C@@H]([C@H]([C@H]([C@H](O1)CO)O)O)O

$$$$
