4I5C_C5I_A_1201
  RCSB PDB08012021593D
Coordinates from PDB:4I5C:A:1201 Model:1 without hydrogens
 23 26  0  0  0  0            999 V2000
   16.9340    2.7000    0.8260   C 0  0  0  0  0  0  0  0  0  0  0  0
   17.7230    1.6120    0.9920   C 0  0  0  0  0  0  0  0  0  0  0  0
   17.1230    0.5000    0.4520   N 0  0  0  0  0  0  0  0  0  0  0  0
   15.8970    0.8540   -0.0830   C 0  0  0  0  0  0  0  0  0  0  0  0
   15.7310    2.2500    0.1330   C 0  0  0  0  0  0  0  0  0  0  0  0
   14.5300    2.8750   -0.2970   C 0  0  0  0  0  0  0  0  0  0  0  0
   13.5410    2.0940   -0.9170   C 0  0  0  0  0  0  0  0  0  0  0  0
   13.7950    0.7150   -1.1020   C 0  0  0  0  0  0  0  0  0  0  0  0
   14.9290    0.1560   -0.6940   N 0  0  0  0  0  0  0  0  0  0  0  0
   12.4910    2.9120   -1.1910   N 0  0  0  0  0  0  0  0  0  0  0  0
   12.7080    4.1080   -0.7560   N 0  0  0  0  0  0  0  0  0  0  0  0
   14.0050    4.1420   -0.2280   N 0  0  0  0  0  0  0  0  0  0  0  0
   14.6350    5.2730    0.4650   C 0  0  0  0  0  0  0  0  0  0  0  0
   14.3930    5.0550    1.9890   C 0  0  0  0  0  0  0  0  0  0  0  0
   15.0090    6.1800    2.8150   C 0  0  0  0  0  0  0  0  0  0  0  0
   14.4010    7.5160    2.3370   C 0  0  0  0  0  0  0  0  0  0  0  0
   14.6630    7.6370    0.8800   N 0  0  0  0  0  0  0  0  0  0  0  0
   14.0510    6.6220    0.0060   C 0  0  0  0  0  0  0  0  0  0  0  0
   15.5320    8.5620    0.3730   C 0  0  0  0  0  0  0  0  0  0  0  0
   15.7550    8.6080   -0.8370   O 0  0  0  0  0  0  0  0  0  0  0  0
   16.1850    9.5720    1.2950   C 0  0  0  0  0  0  0  0  0  0  0  0
   17.2760   10.3050    0.6320   C 0  0  0  0  0  0  0  0  0  0  0  0
   18.1180   10.8680    0.1250   N 0  0  0  0  0  0  0  0  0  0  0  0
  1  2  2  0  0  0  0
  1  5  1  0  0  0  0
  2  3  1  0  0  0  0
  3  4  1  0  0  0  0
  4  5  2  0  0  0  0
  4  9  1  0  0  0  0
  5  6  1  0  0  0  0
  6  7  2  0  0  0  0
  6 12  1  0  0  0  0
  7  8  1  0  0  0  0
  7 10  1  0  0  0  0
  8  9  2  0  0  0  0
 10 11  2  0  0  0  0
 11 12  1  0  0  0  0
 12 13  1  0  0  0  0
 13 14  1  0  0  0  0
 13 18  1  0  0  0  0
 14 15  1  0  0  0  0
 15 16  1  0  0  0  0
 16 17  1  0  0  0  0
 17 18  1  0  0  0  0
 17 19  1  0  0  0  0
 19 20  2  0  0  0  0
 19 21  1  0  0  0  0
 21 22  1  0  0  0  0
 22 23  3  0  0  0  0
M  END
>  <InstanceId>
4I5C_C5I_A_1201

>  <ChemCompId>
C5I

>  <PdbId>
4I5C

>  <ChainId>
A

>  <ResidueNumber>
1201

>  <InsertionCode>


>  <Model>
1

>  <AltIds>


>  <MissingHeavyAtoms>
0

>  <ObservedFormula>
C15 N7 O

>  <Name>
3-oxo-3-[(3R)-3-(pyrrolo[2,3-b][1,2,3]triazolo[4,5-d]pyridin-1(6H)-yl)piperidin-1-yl]propanenitrile

>  <SystematicName>


>  <Synonyms>


>  <Type>
NON-POLYMER

>  <Formula>
C15 H15 N7 O

>  <MolecularWeight>
309.326

>  <ModifiedDate>
2013-05-17

>  <Parent>


>  <OneLetterCode>


>  <SubcomponentList>


>  <AmbiguousFlag>
N

>  <InChI>
InChI=1S/C15H15N7O/c16-5-3-13(23)21-7-1-2-10(9-21)22-14-11-4-6-17-15(11)18-8-12(14)19-20-22/h4,6,8,10H,1-3,7,9H2,(H,17,18)/t10-/m1/s1

>  <InChIKey>
COGIAVJREKAVDL-SNVBAGLBSA-N

>  <SMILES>
c1c[nH]c2c1c3c(cn2)nnn3[C@@H]4CCCN(C4)C(=O)CC#N

$$$$
