1F0R_815_A_401
  RCSB PDB08012014523D
Coordinates from PDB:1F0R:A:401 Model:1 without hydrogens
 31 35  0  0  0  0            999 V2000
    7.7410    9.1240   22.8480   C 0  0  0  0  0  0  0  0  0  0  0  0
    9.0880    9.4590   23.1410   C 0  0  0  0  0  0  0  0  0  0  0  0
    9.7550    8.8810   24.2720   C 0  0  0  0  0  0  0  0  0  0  0  0
    9.0680    7.9360   25.1490   C 0  0  0  0  0  0  0  0  0  0  0  0
    7.7300    7.5870   24.8810   C 0  0  0  0  0  0  0  0  0  0  0  0
    7.0170    8.2060   23.6710   C 0  0  0  0  0  0  0  0  0  0  0  0
   11.1090    9.2260   24.5460   C 0  0  0  0  0  0  0  0  0  0  0  0
   11.7210    8.6290   25.6650   C 0  0  0  0  0  0  0  0  0  0  0  0
   11.0810    7.7380   26.4960   N 0  0  0  0  0  0  0  0  0  0  0  0
    9.7720    7.3880   26.2540   C 0  0  0  0  0  0  0  0  0  0  0  0
    7.7850    1.0920   19.6120   C 0  0  0  0  0  0  0  0  0  0  0  0
    9.0610    0.9520   19.0840   C 0  0  0  0  0  0  0  0  0  0  0  0
    9.2710    0.4420   17.7740   C 0  0  0  0  0  0  0  0  0  0  0  0
    8.1400    0.0760   17.0030   C 0  0  0  0  0  0  0  0  0  0  0  0
    6.8780    0.2040   17.5050   N 0  0  0  0  0  0  0  0  0  0  0  0
    6.6740    0.7000   18.7800   C 0  0  0  0  0  0  0  0  0  0  0  0
    5.4160    0.9140   19.4960   C 0  0  0  0  0  0  0  0  0  0  0  0
    5.6160    1.4400   20.7820   C 0  0  0  0  0  0  0  0  0  0  0  0
    7.2850    1.6670   21.1220   S 0  0  0  0  0  0  0  0  0  0  0  0
    5.5450    6.5380   22.6240   N 0  0  0  0  0  0  0  0  0  0  0  0
    5.0640    5.3650   23.0920   C 0  0  0  0  0  0  0  0  0  0  0  0
    5.2120    4.3180   22.0020   C 0  0  0  0  0  0  0  0  0  0  0  0
    5.4240    5.1650   20.7410   C 0  0  0  0  0  0  0  0  0  0  0  0
    6.0400    6.4550   21.2450   C 0  0  0  0  0  0  0  0  0  0  0  0
    4.0250    3.4980   21.9110   N 0  0  0  0  0  0  0  0  0  0  0  0
    4.2360    1.7790   21.8030   S 0  0  0  0  0  0  0  0  0  0  0  0
    2.9910    1.4090   21.1640   O 0  0  0  0  0  0  0  0  0  0  0  0
    4.5080    1.3770   23.1580   O 0  0  0  0  0  0  0  0  0  0  0  0
    4.5910    5.1490   24.2020   O 0  0  0  0  0  0  0  0  0  0  0  0
    9.2240    6.5130   27.1140   N 0  0  0  0  0  0  0  0  0  0  0  0
    5.5990    7.7970   23.3850   C 0  0  0  0  0  0  0  0  0  0  0  0
  1  2  2  0  0  0  0
  1  6  1  0  0  0  0
  2  3  1  0  0  0  0
  3  4  2  0  0  0  0
  3  7  1  0  0  0  0
  4  5  1  0  0  0  0
  4 10  1  0  0  0  0
  5  6  2  0  0  0  0
  6 31  1  0  0  0  0
  7  8  2  0  0  0  0
  8  9  1  0  0  0  0
  9 10  2  0  0  0  0
 10 30  1  0  0  0  0
 11 12  1  0  0  0  0
 11 16  2  0  0  0  0
 11 19  1  0  0  0  0
 12 13  2  0  0  0  0
 13 14  1  0  0  0  0
 14 15  2  0  0  0  0
 15 16  1  0  0  0  0
 16 17  1  0  0  0  0
 17 18  2  0  0  0  0
 18 19  1  0  0  0  0
 18 26  1  0  0  0  0
 20 21  1  0  0  0  0
 20 24  1  0  0  0  0
 20 31  1  0  0  0  0
 21 22  1  0  0  0  0
 21 29  2  0  0  0  0
 22 23  1  0  0  0  0
 22 25  1  0  0  0  0
 23 24  1  0  0  0  0
 25 26  1  0  0  0  0
 26 27  2  0  0  0  0
 26 28  2  0  0  0  0
M  END
>  <InstanceId>
1F0R_815_A_401

>  <ChemCompId>
815

>  <PdbId>
1F0R

>  <ChainId>
A

>  <ResidueNumber>
401

>  <InsertionCode>


>  <Model>
1

>  <AltIds>


>  <MissingHeavyAtoms>
0

>  <ObservedFormula>
C21 N5 O3 S2

>  <Name>
THIENO[3,2-B]PYRIDINE-2-SULFONIC ACID [1-(1-AMINO-ISOQUINOLIN-7-YLMETHYL)-2-OXO-PYRROLDIN-3-YL]-AMIDE

>  <SystematicName>
N-[(3S)-1-[(1-aminoisoquinolin-7-yl)methyl]-2-oxo-pyrrolidin-3-yl]thieno[4,5-b]pyridine-2-sulfonamide

>  <Synonyms>
RPR208815

>  <Type>
NON-POLYMER

>  <Formula>
C21 H19 N5 O3 S2

>  <MolecularWeight>
453.537

>  <ModifiedDate>
2011-06-04

>  <Parent>


>  <OneLetterCode>


>  <SubcomponentList>


>  <AmbiguousFlag>
N

>  <InChI>
InChI=1S/C21H19N5O3S2/c22-20-15-10-13(3-4-14(15)5-8-24-20)12-26-9-6-16(21(26)27)25-31(28,29)19-11-17-18(30-19)2-1-7-23-17/h1-5,7-8,10-11,16,25H,6,9,12H2,(H2,22,24)/t16-/m0/s1

>  <InChIKey>
NVKDOURNRJCKJE-INIZCTEOSA-N

>  <SMILES>
c1cc2c(cc(s2)S(=O)(=O)N[C@H]3CCN(C3=O)Cc4ccc5ccnc(c5c4)N)nc1

$$$$
