3UBD_SL0_A_400
  RCSB PDB08012020403D
Coordinates from PDB:3UBD:A:400 Model:1 without hydrogens
 37 40  0  0  0  0            999 V2000
   29.1130    4.4050    3.7940   C 0  0  0  0  0  0  0  0  0  0  0  0
   30.2380    4.2500    4.8370   C 0  0  0  0  0  0  0  0  0  0  0  0
   30.4900    3.1340    5.3250   O 0  0  0  0  0  0  0  0  0  0  0  0
   31.0660    5.3260    5.1160   O 0  0  0  0  0  0  0  0  0  0  0  0
   31.9260    5.2090    6.2080   C 0  0  0  0  0  0  0  0  0  0  0  0
   33.2900    4.9260    5.7680   C 0  0  0  0  0  0  0  0  0  0  0  0
   33.7050    5.9640    4.9330   O 0  0  0  0  0  0  0  0  0  0  0  0
   31.8580    6.4870    7.0650   C 0  0  0  0  0  0  0  0  0  0  0  0
   30.5750    6.6780    7.5630   O 0  0  0  0  0  0  0  0  0  0  0  0
   29.7620    7.6910    7.0820   C 0  0  0  0  0  0  0  0  0  0  0  0
   30.2510    8.6280    6.4290   O 0  0  0  0  0  0  0  0  0  0  0  0
   28.2800    7.5390    7.1910   C 0  0  0  0  0  0  0  0  0  0  0  0
   32.8920    6.4000    8.1620   C 0  0  0  0  0  0  0  0  0  0  0  0
   32.9880    7.7000    8.9650   C 0  0  0  0  0  0  0  0  0  0  0  0
   34.1380    6.0250    7.6700   O 0  0  0  0  0  0  0  0  0  0  0  0
   34.2300    4.8250    6.9730   C 0  0  0  0  0  0  0  0  0  0  0  0
   33.8510    3.6850    7.7120   O 0  0  0  0  0  0  0  0  0  0  0  0
   34.5220    3.5580    8.9340   C 0  0  0  0  0  0  0  0  0  0  0  0
   36.0500    3.4170    8.9570   C 0  0  0  0  0  0  0  0  0  0  0  0
   36.7260    3.4420    7.9170   O 0  0  0  0  0  0  0  0  0  0  0  0
   33.8470    3.5330   10.0910   C 0  0  0  0  0  0  0  0  0  0  0  0
   32.3280    3.5880   10.2540   C 0  0  0  0  0  0  0  0  0  0  0  0
   31.8020    3.9990   11.4850   C 0  0  0  0  0  0  0  0  0  0  0  0
   30.4260    3.9960   11.6780   C 0  0  0  0  0  0  0  0  0  0  0  0
   29.6000    3.5280   10.6480   C 0  0  0  0  0  0  0  0  0  0  0  0
   28.2170    3.5160   10.8230   O 0  0  0  0  0  0  0  0  0  0  0  0
   30.1300    3.0750    9.4420   C 0  0  0  0  0  0  0  0  0  0  0  0
   31.5190    3.0770    9.2510   C 0  0  0  0  0  0  0  0  0  0  0  0
   34.4880    3.4020   11.3230   O 0  0  0  0  0  0  0  0  0  0  0  0
   35.9840    3.2440   11.4380   C 0  0  0  0  0  0  0  0  0  0  0  0
   36.5040    3.1330   12.6960   C 0  0  0  0  0  0  0  0  0  0  0  0
   37.8590    2.9950   12.8100   C 0  0  0  0  0  0  0  0  0  0  0  0
   38.3520    2.8840   14.0760   O 0  0  0  0  0  0  0  0  0  0  0  0
   38.6870    3.0070   11.6940   C 0  0  0  0  0  0  0  0  0  0  0  0
   38.1190    3.1390   10.4420   C 0  0  0  0  0  0  0  0  0  0  0  0
   36.7600    3.2720   10.3110   C 0  0  0  0  0  0  0  0  0  0  0  0
   38.9280    3.1410    9.2800   O 0  0  0  0  0  0  0  0  0  0  0  0
  1  2  1  0  0  0  0
  2  4  1  0  0  0  0
  2  3  2  0  0  0  0
  4  5  1  0  0  0  0
  5  8  1  0  0  0  0
  6  5  1  0  0  0  0
  6 16  1  0  0  0  0
  7  6  1  0  0  0  0
  8  9  1  0  0  0  0
  8 13  1  0  0  0  0
 10 12  1  0  0  0  0
 10  9  1  0  0  0  0
 11 10  2  0  0  0  0
 13 14  1  0  0  0  0
 15 13  1  0  0  0  0
 16 15  1  0  0  0  0
 16 17  1  0  0  0  0
 17 18  1  0  0  0  0
 18 19  1  0  0  0  0
 18 21  2  0  0  0  0
 19 36  1  0  0  0  0
 20 19  2  0  0  0  0
 21 22  1  0  0  0  0
 21 29  1  0  0  0  0
 22 28  2  0  0  0  0
 23 24  2  0  0  0  0
 23 22  1  0  0  0  0
 24 25  1  0  0  0  0
 25 26  1  0  0  0  0
 25 27  2  0  0  0  0
 28 27  1  0  0  0  0
 29 30  1  0  0  0  0
 30 31  1  0  0  0  0
 31 32  2  0  0  0  0
 32 33  1  0  0  0  0
 34 32  1  0  0  0  0
 35 34  2  0  0  0  0
 36 35  1  0  0  0  0
 36 30  2  0  0  0  0
 37 35  1  0  0  0  0
M  END
>  <InstanceId>
3UBD_SL0_A_400

>  <ChemCompId>
SL0

>  <PdbId>
3UBD

>  <ChainId>
A

>  <ResidueNumber>
400

>  <InsertionCode>


>  <Model>
1

>  <AltIds>


>  <MissingHeavyAtoms>
0

>  <ObservedFormula>
C25 O12

>  <Name>
5,7-dihydroxy-2-(4-hydroxyphenyl)-4-oxo-4H-chromen-3-yl 3,4-di-O-acetyl-6-deoxy-alpha-L-mannopyranoside

>  <SystematicName>
[4-acetyloxy-6-[2-(4-hydroxyphenyl)-5,7-bis(oxidanyl)-4-oxidanylidene-chromen-3-yl]oxy-2-methyl-5-oxidanyl-oxan-3-yl] ethanoate

>  <Synonyms>
SL 0101-1

>  <Type>
NON-POLYMER

>  <Formula>
C25 H24 O12

>  <MolecularWeight>
516.451

>  <ModifiedDate>
2012-08-31

>  <Parent>


>  <OneLetterCode>


>  <SubcomponentList>


>  <AmbiguousFlag>
N

>  <InChI>
InChI=1S/C25H24O12/c1-10-21(34-11(2)26)24(35-12(3)27)20(32)25(33-10)37-23-19(31)18-16(30)8-15(29)9-17(18)36-22(23)13-4-6-14(28)7-5-13/h4-10,20-21,24-25,28-30,32H,1-3H3/t10-,20+,21-,24-,25-/m0/s1

>  <InChIKey>
SXOZSDJHGMAEGZ-IGKKHSBFSA-N

>  <SMILES>
CC1C(C(C(C(O1)OC2=C(Oc3cc(cc(c3C2=O)O)O)c4ccc(cc4)O)O)OC(=O)C)OC(=O)C

$$$$
