2YA7_ZMR_A_1776
  RCSB PDB08012018213D
Coordinates from PDB:2YA7:A:1776 Model:1 without hydrogens
 23 23  0  0  0  0            999 V2000
   20.2480  -30.4970   15.6440   C 0  0  0  0  0  0  0  0  0  0  0  0
   20.3370  -31.5390   14.9830   O 0  0  0  0  0  0  0  0  0  0  0  0
   20.4640  -29.3550   15.2030   O 0  0  0  0  0  0  0  0  0  0  0  0
   19.8220  -30.6580   17.0990   C 0  0  0  0  0  0  0  0  0  0  0  0
   19.6530  -29.5290   17.8940   C 0  0  0  0  0  0  0  0  0  0  0  0
   19.2710  -29.5820   19.3860   C 0  0  0  0  0  0  0  0  0  0  0  0
   19.3310  -31.0240   19.9230   C 0  0  0  0  0  0  0  0  0  0  0  0
   18.5020  -31.2130   21.1440   N 0  0  0  0  0  0  0  0  0  0  0  0
   19.0090  -31.8720   22.1810   C 0  0  0  0  0  0  0  0  0  0  0  0
   20.1490  -32.3540   22.2010   O 0  0  0  0  0  0  0  0  0  0  0  0
   18.0620  -32.0400   23.3790   C 0  0  0  0  0  0  0  0  0  0  0  0
   18.9340  -32.0700   18.8450   C 0  0  0  0  0  0  0  0  0  0  0  0
   19.6430  -31.9260   17.5500   O 0  0  0  0  0  0  0  0  0  0  0  0
   19.2060  -33.5350   19.2550   C 0  0  0  0  0  0  0  0  0  0  0  0
   20.5830  -33.6650   19.6910   O 0  0  0  0  0  0  0  0  0  0  0  0
   18.9410  -34.5370   18.1240   C 0  0  0  0  0  0  0  0  0  0  0  0
   17.5750  -34.4800   17.6650   O 0  0  0  0  0  0  0  0  0  0  0  0
   19.3030  -35.9580   18.5720   C 0  0  0  0  0  0  0  0  0  0  0  0
   19.1560  -36.8640   17.4840   O 0  0  0  0  0  0  0  0  0  0  0  0
   20.3610  -28.8070   19.9730   N 0  0  0  0  0  0  0  0  0  0  0  0
   20.2420  -27.7630   20.7600   C 0  0  0  0  0  0  0  0  0  0  0  0
   19.0550  -27.3360   21.1300   N 0  0  0  0  0  0  0  0  0  0  0  0
   21.3580  -27.1620   21.2010   N 0  0  0  0  0  0  0  0  0  0  0  0
  1  2  2  0  0  0  0
  1  3  1  0  0  0  0
  1  4  1  0  0  0  0
  4  5  2  0  0  0  0
  4 13  1  0  0  0  0
  5  6  1  0  0  0  0
  6  7  1  0  0  0  0
  6 20  1  0  0  0  0
  7  8  1  0  0  0  0
  7 12  1  0  0  0  0
  8  9  1  0  0  0  0
  9 10  2  0  0  0  0
  9 11  1  0  0  0  0
 12 13  1  0  0  0  0
 12 14  1  0  0  0  0
 14 15  1  0  0  0  0
 14 16  1  0  0  0  0
 16 17  1  0  0  0  0
 16 18  1  0  0  0  0
 18 19  1  0  0  0  0
 20 21  1  0  0  0  0
 21 22  2  0  0  0  0
 21 23  1  0  0  0  0
M  END
>  <InstanceId>
2YA7_ZMR_A_1776

>  <ChemCompId>
ZMR

>  <PdbId>
2YA7

>  <ChainId>
A

>  <ResidueNumber>
1776

>  <InsertionCode>


>  <Model>
1

>  <AltIds>


>  <MissingHeavyAtoms>
0

>  <ObservedFormula>
C12 N4 O7

>  <Name>
ZANAMIVIR

>  <SystematicName>
(2~{R},3~{R},4~{S})-3-acetamido-4-carbamimidamido-2-[(1~{R},2~{R})-1,2,3-tris(oxidanyl)propyl]-3,4-dihydro-2~{H}-pyran- 6-carboxylic acid

>  <Synonyms>
4-GUANIDINO-2-DEOXY-2,3-DEHYDRO-N-ACETYL-NEURAMINIC ACID; 4-guanidino-Neu5Ac2en; MODIFIED SIALIC ACID

>  <Type>
D-saccharide

>  <Formula>
C12 H20 N4 O7

>  <MolecularWeight>
332.31

>  <ModifiedDate>
2020-07-17

>  <Parent>


>  <OneLetterCode>


>  <SubcomponentList>


>  <AmbiguousFlag>
N

>  <InChI>
InChI=1S/C12H20N4O7/c1-4(18)15-8-5(16-12(13)14)2-7(11(21)22)23-10(8)9(20)6(19)3-17/h2,5-6,8-10,17,19-20H,3H2,1H3,(H,15,18)(H,21,22)(H4,13,14,16)/t5-,6+,8+,9+,10+/m0/s1

>  <InChIKey>
ARAIBEBZBOPLMB-UFGQHTETSA-N

>  <SMILES>
[H]/N=C(\N)/N[C@H]1C=C(O[C@H]([C@@H]1NC(=O)C)[C@@H]([C@@H](CO)O)O)C(=O)O

$$$$
