5VCV_1N1_A_404
  RCSB PDB08022003203D
Coordinates from PDB:5VCV:A:404 Model:1 without hydrogens
 33 36  0  0  0  0            999 V2000
   29.4380    4.9570   -1.5400   C 0  0  0  0  0  0  0  0  0  0  0  0
   28.5730    4.0770   -0.8910   C 0  0  0  0  0  0  0  0  0  0  0  0
   28.5960    2.6010   -0.8860   C 0  0  0  0  0  0  0  0  0  0  0  0
   24.1910   12.9770    3.5220   N 0  0  0  0  0  0  0  0  0  0  0  0
   30.0760   -2.1710   -1.6900   C 0  0  0  0  0  0  0  0  0  0  0  0
   30.7630   -1.5070   -0.6930   C 0  0  0  0  0  0  0  0  0  0  0  0
   30.6440   -0.1330   -0.6030   C 0  0  0  0  0  0  0  0  0  0  0  0
   31.4000    0.6480    0.4450   C 0  0  0  0  0  0  0  0  0  0  0  0
   26.4310    7.8780    0.5360   C 0  0  0  0  0  0  0  0  0  0  0  0
   26.0550    9.1770    0.9030   C 0  0  0  0  0  0  0  0  0  0  0  0
   24.9270    9.3190    1.7120   C 0  0  0  0  0  0  0  0  0  0  0  0
   24.6410    7.0170    1.7600   C 0  0  0  0  0  0  0  0  0  0  0  0
   23.8510    5.8540    2.2230   C 0  0  0  0  0  0  0  0  0  0  0  0
   23.8980   10.6280    3.4260   C 0  0  0  0  0  0  0  0  0  0  0  0
   25.3050   11.8090    1.7240   C 0  0  0  0  0  0  0  0  0  0  0  0
   25.2030   13.3320    4.5330   C 0  0  0  0  0  0  0  0  0  0  0  0
   24.7540   14.6390    5.1390   C 0  0  0  0  0  0  0  0  0  0  0  0
   27.6060    7.7400   -0.3020   N 0  0  0  0  0  0  0  0  0  0  0  0
   28.0740    6.4370   -0.6080   C 0  0  0  0  0  0  0  0  0  0  0  0
   29.1160    6.2290   -1.3510   N 0  0  0  0  0  0  0  0  0  0  0  0
   27.3470    4.9440   -0.0310   S 0  0  0  0  0  0  0  0  0  0  0  0
   29.7360    2.0010   -1.4660   N 0  0  0  0  0  0  0  0  0  0  0  0
   29.8310    0.5490   -1.5170   C 0  0  0  0  0  0  0  0  0  0  0  0
   29.1380   -0.1200   -2.5110   C 0  0  0  0  0  0  0  0  0  0  0  0
   29.2590   -1.4900   -2.5960   C 0  0  0  0  0  0  0  0  0  0  0  0
   28.1540    0.7430   -3.6500  Cl 0  0  0  0  0  0  0  0  0  0  0  0
   27.6840    1.9530   -0.4030   O 0  0  0  0  0  0  0  0  0  0  0  0
   24.2590    8.2340    2.1170   N 0  0  0  0  0  0  0  0  0  0  0  0
   25.7070    6.8310    0.9820   N 0  0  0  0  0  0  0  0  0  0  0  0
   24.5120   10.6550    2.1310   N 0  0  0  0  0  0  0  0  0  0  0  0
   23.2300   11.9100    3.7060   C 0  0  0  0  0  0  0  0  0  0  0  0
   24.5880   13.0860    2.1100   C 0  0  0  0  0  0  0  0  0  0  0  0
   23.4860   14.5080    5.6810   O 0  0  0  0  0  0  0  0  0  0  0  0
  1  2  2  0  0  0  0
  1 20  1  0  0  0  0
  2  3  1  0  0  0  0
  2 21  1  0  0  0  0
  3 22  1  0  0  0  0
  3 27  2  0  0  0  0
  4 16  1  0  0  0  0
  4 31  1  0  0  0  0
  4 32  1  0  0  0  0
  5  6  2  0  0  0  0
  5 25  1  0  0  0  0
  6  7  1  0  0  0  0
  7  8  1  0  0  0  0
  7 23  2  0  0  0  0
  9 10  1  0  0  0  0
  9 18  1  0  0  0  0
  9 29  2  0  0  0  0
 10 11  2  0  0  0  0
 11 28  1  0  0  0  0
 11 30  1  0  0  0  0
 12 13  1  0  0  0  0
 12 28  2  0  0  0  0
 12 29  1  0  0  0  0
 14 30  1  0  0  0  0
 14 31  1  0  0  0  0
 15 30  1  0  0  0  0
 15 32  1  0  0  0  0
 16 17  1  0  0  0  0
 17 33  1  0  0  0  0
 18 19  1  0  0  0  0
 19 20  2  0  0  0  0
 19 21  1  0  0  0  0
 22 23  1  0  0  0  0
 23 24  1  0  0  0  0
 24 25  2  0  0  0  0
 24 26  1  0  0  0  0
M  END
>  <InstanceId>
5VCV_1N1_A_404

>  <ChemCompId>
1N1

>  <PdbId>
5VCV

>  <ChainId>
A

>  <ResidueNumber>
404

>  <InsertionCode>


>  <Model>
1

>  <AltIds>


>  <MissingHeavyAtoms>
0

>  <ObservedFormula>
C22 N7 O2 S Cl

>  <Name>
N-(2-CHLORO-6-METHYLPHENYL)-2-({6-[4-(2-HYDROXYETHYL)PIPERAZIN-1-YL]-2-METHYLPYRIMIDIN-4-YL}AMINO)-1,3-THIAZOLE-5-CARBOXAMIDE

>  <SystematicName>
N-(2-chloranyl-6-methyl-phenyl)-2-[[6-[4-(2-hydroxyethyl)piperazin-1-yl]-2-methyl-pyrimidin-4-yl]amino]-1,3-thiazole-5-carboxamide

>  <Synonyms>
Dasatinib

>  <Type>
NON-POLYMER

>  <Formula>
C22 H26 Cl N7 O2 S

>  <MolecularWeight>
488.006

>  <ModifiedDate>
2011-07-22

>  <Parent>


>  <OneLetterCode>


>  <SubcomponentList>


>  <AmbiguousFlag>
N

>  <InChI>
InChI=1S/C22H26ClN7O2S/c1-14-4-3-5-16(23)20(14)28-21(32)17-13-24-22(33-17)27-18-12-19(26-15(2)25-18)30-8-6-29(7-9-30)10-11-31/h3-5,12-13,31H,6-11H2,1-2H3,(H,28,32)(H,24,25,26,27)

>  <InChIKey>
ZBNZXTGUTAYRHI-UHFFFAOYSA-N

>  <SMILES>
Cc1cccc(c1NC(=O)c2cnc(s2)Nc3cc(nc(n3)C)N4CCN(CC4)CCO)Cl

$$$$
