4QJW_WWO_A_302
  RCSB PDB08012023013D
Coordinates from PDB:4QJW:A:302 Model:1 without hydrogens
 27 28  0  0  0  0            999 V2000
   -5.8860   17.6870   -5.8290   F 0  0  0  0  0  0  0  0  0  0  0  0
   -4.6250   17.8400   -5.3510   C 0  0  0  0  0  0  0  0  0  0  0  0
   -3.7640   16.7350   -5.3570   C 0  0  0  0  0  0  0  0  0  0  0  0
   -4.3520   15.1570   -5.9950   S 0  0  0  0  0  0  0  0  0  0  0  0
   -4.7330   15.1810   -7.4840   O 0  0  0  0  0  0  0  0  0  0  0  0
   -3.2680   13.7760   -5.8290   N 0  0  0  0  0  0  0  0  0  0  0  0
   -5.6650   14.7080   -5.3370   O 0  0  0  0  0  0  0  0  0  0  0  0
   -2.4570   16.8670   -4.8690   C 0  0  0  0  0  0  0  0  0  0  0  0
   -1.6100   15.8090   -4.8680   F 0  0  0  0  0  0  0  0  0  0  0  0
   -2.0110   18.0960   -4.3770   C 0  0  0  0  0  0  0  0  0  0  0  0
   -0.7420   18.2020   -3.9090   F 0  0  0  0  0  0  0  0  0  0  0  0
   -4.1840   19.0890   -4.8540   C 0  0  0  0  0  0  0  0  0  0  0  0
   -2.8660   19.2100   -4.3650   C 0  0  0  0  0  0  0  0  0  0  0  0
   -2.2560   20.7790   -3.7210   S 0  0  0  0  0  0  0  0  0  0  0  0
   -3.2790   21.8490   -4.1320   O 0  0  0  0  0  0  0  0  0  0  0  0
   -1.0830   21.2390   -4.6000   O 0  0  0  0  0  0  0  0  0  0  0  0
   -1.8350   21.1420   -1.9880   C 0  0  0  0  0  0  0  0  0  0  0  0
   -2.2000   19.9620   -1.1080   C 0  0  0  0  0  0  0  0  0  0  0  0
   -3.5710   19.7300   -1.1870   O 0  0  0  0  0  0  0  0  0  0  0  0
   -5.0380   20.2310   -4.8350   N 0  0  0  0  0  0  0  0  0  0  0  0
   -6.3540   20.2600   -5.4300   C 0  0  0  0  0  0  0  0  0  0  0  0
   -7.0680   21.5260   -5.1050   C 0  0  0  0  0  0  0  0  0  0  0  0
   -7.8300   21.6070   -3.9340   C 0  0  0  0  0  0  0  0  0  0  0  0
   -8.5060   22.7890   -3.6170   C 0  0  0  0  0  0  0  0  0  0  0  0
   -8.4220   23.8930   -4.4690   C 0  0  0  0  0  0  0  0  0  0  0  0
   -7.6610   23.8150   -5.6410   C 0  0  0  0  0  0  0  0  0  0  0  0
   -6.9840   22.6320   -5.9590   C 0  0  0  0  0  0  0  0  0  0  0  0
  5  4  2  0  0  0  0
  4  6  1  0  0  0  0
  4  3  1  0  0  0  0
  4  7  2  0  0  0  0
 27 26  2  0  0  0  0
 27 22  1  0  0  0  0
  1  2  1  0  0  0  0
 26 25  1  0  0  0  0
 21 22  1  0  0  0  0
 21 20  1  0  0  0  0
  3  2  2  0  0  0  0
  3  8  1  0  0  0  0
  2 12  1  0  0  0  0
 22 23  2  0  0  0  0
  8  9  1  0  0  0  0
  8 10  2  0  0  0  0
 12 20  1  0  0  0  0
 12 13  2  0  0  0  0
 16 14  2  0  0  0  0
 25 24  2  0  0  0  0
 10 13  1  0  0  0  0
 10 11  1  0  0  0  0
 13 14  1  0  0  0  0
 15 14  2  0  0  0  0
 23 24  1  0  0  0  0
 14 17  1  0  0  0  0
 17 18  1  0  0  0  0
 19 18  1  0  0  0  0
M  END
>  <InstanceId>
4QJW_WWO_A_302

>  <ChemCompId>
WWO

>  <PdbId>
4QJW

>  <ChainId>
A

>  <ResidueNumber>
302

>  <InsertionCode>


>  <Model>
1

>  <AltIds>


>  <MissingHeavyAtoms>
0

>  <ObservedFormula>
C15 N2 O5 S2 F3

>  <Name>
3-(benzylamino)-2,5,6-trifluoro-4-[(2-hydroxyethyl)sulfonyl]benzenesulfonamide

>  <SystematicName>
2,3,6-tris(fluoranyl)-4-(2-hydroxyethylsulfonyl)-5-[(phenylmethyl)amino]benzenesulfonamide

>  <Synonyms>


>  <Type>
NON-POLYMER

>  <Formula>
C15 H15 F3 N2 O5 S2

>  <MolecularWeight>
424.415

>  <ModifiedDate>
2015-04-10

>  <Parent>


>  <OneLetterCode>


>  <SubcomponentList>


>  <AmbiguousFlag>
N

>  <InChI>
InChI=1S/C15H15F3N2O5S2/c16-10-11(17)15(26(22,23)7-6-21)13(12(18)14(10)27(19,24)25)20-8-9-4-2-1-3-5-9/h1-5,20-21H,6-8H2,(H2,19,24,25)

>  <InChIKey>
OLTMJLATLWYQJF-UHFFFAOYSA-N

>  <SMILES>
c1ccc(cc1)CNc2c(c(c(c(c2S(=O)(=O)CCO)F)F)S(=O)(=O)N)F

$$$$
