4P5D_N6P_C_201
  RCSB PDB08012022503D
Coordinates from PDB:4P5D:C:201 Model:1 without hydrogens
 32 36  0  0  0  0            999 V2000
   13.3030   77.0120   -5.0830   C 0  0  0  0  0  0  0  0  0  0  0  0
   14.1900   78.0600   -5.3350   C 0  0  0  0  0  0  0  0  0  0  0  0
   15.2870   78.2730   -4.4860   C 0  0  0  0  0  0  0  0  0  0  0  0
   16.1710   79.3190   -4.7300   C 0  0  0  0  0  0  0  0  0  0  0  0
   15.9570   80.1590   -5.8230   C 0  0  0  0  0  0  0  0  0  0  0  0
   14.8610   79.9540   -6.6640   C 0  0  0  0  0  0  0  0  0  0  0  0
   13.9820   78.9040   -6.4180   C 0  0  0  0  0  0  0  0  0  0  0  0
   12.8900   78.7000   -7.2630   C 0  0  0  0  0  0  0  0  0  0  0  0
   12.0140   77.6550   -7.0170   C 0  0  0  0  0  0  0  0  0  0  0  0
   12.2420   76.7790   -5.9430   C 0  0  0  0  0  0  0  0  0  0  0  0
   11.2640   75.6680   -5.6110   C 0  0  0  0  0  0  0  0  0  0  0  0
   11.4900   74.8880   -4.5270   N 0  0  0  0  0  0  0  0  0  0  0  0
   10.6380   73.9440   -4.1450   C 0  0  0  0  0  0  0  0  0  0  0  0
    9.4940   73.6880   -4.8140   N 0  0  0  0  0  0  0  0  0  0  0  0
    9.1700   74.4340   -5.9110   C 0  0  0  0  0  0  0  0  0  0  0  0
   10.0480   75.4590   -6.3440   C 0  0  0  0  0  0  0  0  0  0  0  0
    9.4820   76.0240   -7.4460   N 0  0  0  0  0  0  0  0  0  0  0  0
    8.3060   75.3940   -7.6880   C 0  0  0  0  0  0  0  0  0  0  0  0
    8.1060   74.4390   -6.7840   N 0  0  0  0  0  0  0  0  0  0  0  0
    7.0080   73.6060   -6.6740   C 0  0  0  0  0  0  0  0  0  0  0  0
    5.9820   74.0750   -7.8200   O 0  0  0  0  0  0  0  0  0  0  0  0
    6.4000   73.8970   -5.5030   C 0  0  0  0  0  0  0  0  0  0  0  0
    6.0390   72.7020   -4.6960   O 0  0  0  0  0  0  0  0  0  0  0  0
    5.1130   74.7230   -5.7790   C 0  0  0  0  0  0  0  0  0  0  0  0
    3.9880   74.1300   -5.3440   O 0  0  0  0  0  0  0  0  0  0  0  0
    5.0320   74.8540   -7.3250   C 0  0  0  0  0  0  0  0  0  0  0  0
    5.2130   76.3020   -7.7460   C 0  0  0  0  0  0  0  0  0  0  0  0
    5.2640   76.2970   -9.1890   O 0  0  0  0  0  0  0  0  0  0  0  0
    5.6900   77.6180   -9.9740   P 0  0  0  0  0  0  0  0  0  0  0  0
    7.0560   78.0130   -9.5710   O 0  0  0  0  0  0  0  0  0  0  0  0
    5.6200   77.2900  -11.4670   O 0  0  0  0  0  0  0  0  0  0  0  0
    4.7260   78.7280   -9.6480   O 0  0  0  0  0  0  0  0  0  0  0  0
 31 29  2  0  0  0  0
 29 32  1  0  0  0  0
 29 30  1  0  0  0  0
 29 28  1  0  0  0  0
 28 27  1  0  0  0  0
 21 26  1  0  0  0  0
 21 20  1  0  0  0  0
 27 26  1  0  0  0  0
 18 17  2  0  0  0  0
 18 19  1  0  0  0  0
 17 16  1  0  0  0  0
  8  9  2  0  0  0  0
  8  7  1  0  0  0  0
 26 24  1  0  0  0  0
  9 10  1  0  0  0  0
 19 20  1  0  0  0  0
 19 15  1  0  0  0  0
  6  7  2  0  0  0  0
  6  5  1  0  0  0  0
 20 22  1  0  0  0  0
  7  2  1  0  0  0  0
 16 15  2  0  0  0  0
 16 11  1  0  0  0  0
 10 11  1  0  0  0  0
 10  1  2  0  0  0  0
 15 14  1  0  0  0  0
  5  4  2  0  0  0  0
 24 22  1  0  0  0  0
 24 25  1  0  0  0  0
 11 12  2  0  0  0  0
 22 23  1  0  0  0  0
  2  1  1  0  0  0  0
  2  3  2  0  0  0  0
 14 13  2  0  0  0  0
  4  3  1  0  0  0  0
 12 13  1  0  0  0  0
M  END
>  <InstanceId>
4P5D_N6P_C_201

>  <ChemCompId>
N6P

>  <PdbId>
4P5D

>  <ChainId>
C

>  <ResidueNumber>
201

>  <InsertionCode>


>  <Model>
1

>  <AltIds>


>  <MissingHeavyAtoms>
0

>  <ObservedFormula>
C20 N4 O7 P

>  <Name>
6-(naphthalen-2-yl)-9-(5-O-phosphono-beta-D-ribofuranosyl)-9H-purine

>  <SystematicName>
[(2R,3S,4R,5R)-5-(6-naphthalen-2-ylpurin-9-yl)-3,4-bis(oxidanyl)oxolan-2-yl]methyl dihydrogen phosphate

>  <Synonyms>
6-Naphthylpurine riboside 5'-monophosphate

>  <Type>
NON-POLYMER

>  <Formula>
C20 H19 N4 O7 P

>  <MolecularWeight>
458.361

>  <ModifiedDate>
2020-06-17

>  <Parent>


>  <OneLetterCode>


>  <SubcomponentList>


>  <AmbiguousFlag>
N

>  <InChI>
InChI=1S/C20H19N4O7P/c25-17-14(8-30-32(27,28)29)31-20(18(17)26)24-10-23-16-15(21-9-22-19(16)24)13-6-5-11-3-1-2-4-12(11)7-13/h1-7,9-10,14,17-18,20,25-26H,8H2,(H2,27,28,29)/t14-,17-,18-,20-/m1/s1

>  <InChIKey>
LQGRESLLVHYRLI-VXXKDZQQSA-N

>  <SMILES>
c1ccc2cc(ccc2c1)c3c4c(ncn3)n(cn4)[C@H]5[C@@H]([C@@H]([C@H](O5)COP(=O)(O)O)O)O

$$$$
