5EQE_5R8_A_501
  RCSB PDB08022001163D
Coordinates from PDB:5EQE:A:501 Model:1 without hydrogens
 17 18  0  0  0  0            999 V2000
   17.2160   72.9340   60.2590   C 0  0  0  0  0  0  0  0  0  0  0  0
   19.6050   72.1640   60.4190   C 0  0  0  0  0  0  0  0  0  0  0  0
   18.2970   72.3260   61.0750   N 0  0  0  0  0  0  0  0  0  0  0  0
   17.4650   74.4120   59.8420   C 0  0  0  0  0  0  0  0  0  0  0  0
   17.8350   75.3910   60.9230   N 0  0  0  0  0  0  0  0  0  0  0  0
   17.4390   75.0220   62.3020   C 0  0  0  0  0  0  0  0  0  0  0  0
   18.4690   74.1010   62.9500   C 0  0  0  0  0  0  0  0  0  0  0  0
   18.2850   72.6280   62.5420   C 0  0  0  0  0  0  0  0  0  0  0  0
   17.7520   76.8590   60.6240   C 0  0  0  0  0  0  0  0  0  0  0  0
   17.2610   77.3120   59.2440   C 0  0  0  0  0  0  0  0  0  0  0  0
   18.1980   77.6890   58.2340   C 0  0  0  0  0  0  0  0  0  0  0  0
   17.7530   78.1070   56.9580   C 0  0  0  0  0  0  0  0  0  0  0  0
   16.3510   78.1660   56.6640   C 0  0  0  0  0  0  0  0  0  0  0  0
   15.4130   77.7940   57.6690   C 0  0  0  0  0  0  0  0  0  0  0  0
   15.8580   77.3760   58.9420   C 0  0  0  0  0  0  0  0  0  0  0  0
   15.8630   78.6110   55.3030   C 0  0  0  0  0  0  0  0  0  0  0  0
   16.0910   80.0430   55.0660   N 0  0  0  0  0  0  0  0  0  0  0  0
 17 16  1  0  0  0  0
 16 13  1  0  0  0  0
 13 12  2  0  0  0  0
 13 14  1  0  0  0  0
 12 11  1  0  0  0  0
 14 15  2  0  0  0  0
 11 10  2  0  0  0  0
 15 10  1  0  0  0  0
 10  9  1  0  0  0  0
  4  1  1  0  0  0  0
  4  5  1  0  0  0  0
  1  3  1  0  0  0  0
  2  3  1  0  0  0  0
  9  5  1  0  0  0  0
  5  6  1  0  0  0  0
  3  8  1  0  0  0  0
  6  7  1  0  0  0  0
  8  7  1  0  0  0  0
M  END
>  <InstanceId>
5EQE_5R8_A_501

>  <ChemCompId>
5R8

>  <PdbId>
5EQE

>  <ChainId>
A

>  <ResidueNumber>
501

>  <InsertionCode>


>  <Model>
1

>  <AltIds>


>  <MissingHeavyAtoms>
0

>  <ObservedFormula>
C14 N3

>  <Name>
[4-[(4-methyl-1,4-diazepan-1-yl)methyl]phenyl]methanamine

>  <SystematicName>
[4-[(4-methyl-1,4-diazepan-1-yl)methyl]phenyl]methanamine

>  <Synonyms>


>  <Type>
NON-POLYMER

>  <Formula>
C14 H23 N3

>  <MolecularWeight>
233.353

>  <ModifiedDate>
2015-12-31

>  <Parent>


>  <OneLetterCode>


>  <SubcomponentList>


>  <AmbiguousFlag>
N

>  <InChI>
InChI=1S/C14H23N3/c1-16-7-2-8-17(10-9-16)12-14-5-3-13(11-15)4-6-14/h3-6H,2,7-12,15H2,1H3

>  <InChIKey>
AQLZGQUKWNQYPH-UHFFFAOYSA-N

>  <SMILES>
CN1CCCN(CC1)Cc2ccc(cc2)CN

$$$$
