1M7Y_PPG_A_600
  RCSB PDB08012015263D
Coordinates from PDB:1M7Y:A:600 Model:1 without hydrogens
 26 26  0  0  0  0            999 V2000
   23.2370    2.2760   18.8790   N 0  0  0  0  0  0  0  0  0  0  0  0
   22.0730    2.0290   18.1400   C 0  0  0  0  0  0  0  0  0  0  0  0
   22.0480    2.6300   16.7730   C 0  0  0  0  0  0  0  0  0  0  0  0
   21.0520    1.2450   18.7510   C 0  0  0  0  0  0  0  0  0  0  0  0
   19.9540    0.9980   18.0770   O 0  0  0  0  0  0  0  0  0  0  0  0
   21.2870    0.7490   20.1240   C 0  0  0  0  0  0  0  0  0  0  0  0
   20.2070   -0.1270   20.8680   C 0  0  0  0  0  0  0  0  0  0  0  0
   22.5640    1.0870   20.7910   C 0  0  0  0  0  0  0  0  0  0  0  0
   23.5040    1.8410   20.1460   C 0  0  0  0  0  0  0  0  0  0  0  0
   22.7960    0.5630   22.2090   C 0  0  0  0  0  0  0  0  0  0  0  0
   23.1110   -0.8190   22.1390   O 0  0  0  0  0  0  0  0  0  0  0  0
   24.0800   -1.5320   23.2440   P 0  0  0  0  0  0  0  0  0  0  0  0
   25.2680   -1.9890   22.4650   O 0  0  0  0  0  0  0  0  0  0  0  0
   23.3690   -2.6690   23.8070   O 0  0  0  0  0  0  0  0  0  0  0  0
   24.4090   -0.5470   24.2940   O 0  0  0  0  0  0  0  0  0  0  0  0
   18.8790    0.0800   20.3520   N 0  0  0  0  0  0  0  0  0  0  0  0
   17.7230   -0.0800   21.0240   C 0  0  0  0  0  0  0  0  0  0  0  0
   16.5550    0.0900   20.2560   C 0  0  0  0  0  0  0  0  0  0  0  0
   16.6430    0.7530   19.1500   O 0  0  0  0  0  0  0  0  0  0  0  0
   15.4000   -0.4010   20.6440   O 0  0  0  0  0  0  0  0  0  0  0  0
   17.7250   -0.3570   22.4510   C 0  0  0  0  0  0  0  0  0  0  0  0
   16.8160   -1.1250   23.0540   C 0  0  0  0  0  0  0  0  0  0  0  0
   17.0180   -1.3310   24.4750   O 0  0  0  0  0  0  0  0  0  0  0  0
   15.7600   -1.4200   25.1710   C 0  0  0  0  0  0  0  0  0  0  0  0
   15.5090   -2.8490   25.6690   C 0  0  0  0  0  0  0  0  0  0  0  0
   15.3360   -3.7370   24.5200   N 0  0  0  0  0  0  0  0  0  0  0  0
  1  2  2  0  0  0  0
  1  9  1  0  0  0  0
  2  3  1  0  0  0  0
  2  4  1  0  0  0  0
  4  5  1  0  0  0  0
  4  6  2  0  0  0  0
  6  7  1  0  0  0  0
  6  8  1  0  0  0  0
  7 16  1  0  0  0  0
  8  9  2  0  0  0  0
  8 10  1  0  0  0  0
 10 11  1  0  0  0  0
 11 12  1  0  0  0  0
 12 13  2  0  0  0  0
 12 14  1  0  0  0  0
 12 15  1  0  0  0  0
 16 17  2  0  0  0  0
 17 18  1  0  0  0  0
 17 21  1  0  0  0  0
 18 19  2  0  0  0  0
 18 20  1  0  0  0  0
 21 22  2  0  0  0  0
 22 23  1  0  0  0  0
 23 24  1  0  0  0  0
 24 25  1  0  0  0  0
 25 26  1  0  0  0  0
M  END
>  <InstanceId>
1M7Y_PPG_A_600

>  <ChemCompId>
PPG

>  <PdbId>
1M7Y

>  <ChainId>
A

>  <ResidueNumber>
600

>  <InsertionCode>


>  <Model>
1

>  <AltIds>


>  <MissingHeavyAtoms>
0

>  <ObservedFormula>
C14 N3 O8 P

>  <Name>
(2E,3E)-4-(2-aminoethoxy)-2-[({3-hydroxy-2-methyl-5-[(phosphonooxy)methyl]pyridin-4-yl}methyl)imino]but-3-enoic acid

>  <SystematicName>
(E,2E)-4-(2-azanylethoxy)-2-[[2-methyl-3-oxidanyl-5-(phosphonooxymethyl)pyridin-4-yl]methylimino]but-3-enoic acid

>  <Synonyms>


>  <Type>
NON-POLYMER

>  <Formula>
C14 H20 N3 O8 P

>  <MolecularWeight>
389.298

>  <ModifiedDate>
2011-12-22

>  <Parent>


>  <OneLetterCode>


>  <SubcomponentList>


>  <AmbiguousFlag>
N

>  <InChI>
InChI=1S/C14H20N3O8P/c1-9-13(18)11(10(6-16-9)8-25-26(21,22)23)7-17-12(14(19)20)2-4-24-5-3-15/h2,4,6,18H,3,5,7-8,15H2,1H3,(H,19,20)(H2,21,22,23)/b4-2+,17-12+

>  <InChIKey>
OBCQKAZQAHYUOZ-CALQLVRRSA-N

>  <SMILES>
Cc1c(c(c(cn1)COP(=O)(O)O)C/N=C(\C=C\OCCN)/C(=O)O)O

$$$$
