5MXF_MFU_A_401
  RCSB PDB08022002273D
Coordinates from PDB:5MXF:A:401 Model:1 without hydrogens
 12 12  0  0  0  0            999 V2000
   -2.4940   15.3100   -8.7520   C 0  0  0  0  0  0  0  0  0  0  0  0
   -2.6990   15.5830  -10.2520   C 0  0  0  0  0  0  0  0  0  0  0  0
   -4.0580   16.2280  -10.5440   C 0  0  0  0  0  0  0  0  0  0  0  0
   -4.3170   17.4370   -9.6380   C 0  0  0  0  0  0  0  0  0  0  0  0
   -4.1190   17.0130   -8.1750   C 0  0  0  0  0  0  0  0  0  0  0  0
   -4.3310   18.1320   -7.1550   C 0  0  0  0  0  0  0  0  0  0  0  0
   -3.2850   14.1970   -8.2810   O 0  0  0  0  0  0  0  0  0  0  0  0
   -2.5630   14.3640  -10.9950   O 0  0  0  0  0  0  0  0  0  0  0  0
   -4.1070   16.6640  -11.9050   O 0  0  0  0  0  0  0  0  0  0  0  0
   -3.4770   18.5390  -10.0530   O 0  0  0  0  0  0  0  0  0  0  0  0
   -2.7940   16.5040   -8.0080   O 0  0  0  0  0  0  0  0  0  0  0  0
   -2.8240   13.6680   -7.0300   C 0  0  0  0  0  0  0  0  0  0  0  0
  1  2  1  0  0  0  0
  1  7  1  0  0  0  0
  1 11  1  0  0  0  0
  2  3  1  0  0  0  0
  2  8  1  0  0  0  0
  3  4  1  0  0  0  0
  3  9  1  0  0  0  0
  4  5  1  0  0  0  0
  4 10  1  0  0  0  0
  5  6  1  0  0  0  0
  5 11  1  0  0  0  0
  7 12  1  0  0  0  0
M  END
>  <InstanceId>
5MXF_MFU_A_401

>  <ChemCompId>
MFU

>  <PdbId>
5MXF

>  <ChainId>
A

>  <ResidueNumber>
401

>  <InsertionCode>


>  <Model>
1

>  <AltIds>


>  <MissingHeavyAtoms>
0

>  <ObservedFormula>
C7 O5

>  <Name>
methyl alpha-L-fucopyranoside

>  <SystematicName>
(2R,3S,4R,5S,6S)-2-methoxy-6-methyl-oxane-3,4,5-triol

>  <Synonyms>
ALPHA-L-METHYL-FUCOSE; methyl 6-deoxy-alpha-L-galactopyranoside; methyl alpha-L-fucoside; methyl L-fucoside; methyl fucoside

>  <Type>
L-saccharide

>  <Formula>
C7 H14 O5

>  <MolecularWeight>
178.183

>  <ModifiedDate>
2020-07-17

>  <Parent>
FUC

>  <OneLetterCode>


>  <SubcomponentList>


>  <AmbiguousFlag>
N

>  <InChI>
InChI=1S/C7H14O5/c1-3-4(8)5(9)6(10)7(11-2)12-3/h3-10H,1-2H3/t3-,4+,5+,6-,7+/m0/s1

>  <InChIKey>
OHWCAVRRXKJCRB-CXNFULCWSA-N

>  <SMILES>
C[C@H]1[C@H]([C@H]([C@@H]([C@@H](O1)OC)O)O)O

$$$$
