5JSQ_6MS_A_301
  RCSB PDB08022001573D
Coordinates from PDB:5JSQ:A:301 Model:1 without hydrogens
 21 22  0  0  0  0            999 V2000
   40.8260   22.8280   40.9160   C 0  0  0  0  0  0  0  0  0  0  0  0
   40.6500   30.2020   39.7450   P 0  0  0  0  0  0  0  0  0  0  0  0
   42.8070   21.5080   46.3950   O 0  0  0  0  0  0  0  0  0  0  0  0
   41.9690   21.5480   45.5230   C 0  0  0  0  0  0  0  0  0  0  0  0
   40.7350   20.9770   45.7890   N 0  0  0  0  0  0  0  0  0  0  0  0
   39.6980   20.9710   44.8340   C 0  0  0  0  0  0  0  0  0  0  0  0
   38.5160   20.3730   45.2200   N 0  0  0  0  0  0  0  0  0  0  0  0
   39.8750   21.5230   43.5300   N 0  0  0  0  0  0  0  0  0  0  0  0
   41.1550   22.0850   43.2320   C 0  0  0  0  0  0  0  0  0  0  0  0
   42.1930   22.1290   44.1590   C 0  0  0  0  0  0  0  0  0  0  0  0
   43.2530   22.7610   43.5660   N 0  0  0  0  0  0  0  0  0  0  0  0
   42.8780   23.0780   42.3240   C 0  0  0  0  0  0  0  0  0  0  0  0
   41.6320   22.6790   42.1150   N 0  0  0  0  0  0  0  0  0  0  0  0
   39.8260   24.0070   41.1370   C 0  0  0  0  0  0  0  0  0  0  0  0
   39.9620   25.0760   40.0290   C 0  0  0  0  0  0  0  0  0  0  0  0
   39.1940   26.3690   40.3470   C 0  0  0  0  0  0  0  0  0  0  0  0
   40.0890   27.5710   40.0100   C 0  0  0  0  0  0  0  0  0  0  0  0
   39.4440   28.9170   40.2030   C 0  0  0  0  0  0  0  0  0  0  0  0
   41.7970   30.1740   40.7290   O 0  0  0  0  0  0  0  0  0  0  0  0
   41.1560   29.9170   38.3520   O 0  0  0  0  0  0  0  0  0  0  0  0
   40.0050   31.5700   39.7400   O 0  0  0  0  0  0  0  0  0  0  0  0
 20  2  2  0  0  0  0
 21  2  1  0  0  0  0
  2 18  1  0  0  0  0
  2 19  1  0  0  0  0
 17 18  1  0  0  0  0
 17 16  1  0  0  0  0
 15 16  1  0  0  0  0
 15 14  1  0  0  0  0
  1 14  1  0  0  0  0
  1 13  1  0  0  0  0
 13 12  1  0  0  0  0
 13  9  1  0  0  0  0
 12 11  2  0  0  0  0
  9  8  1  0  0  0  0
  9 10  2  0  0  0  0
  8  6  2  0  0  0  0
 11 10  1  0  0  0  0
 10  4  1  0  0  0  0
  6  7  1  0  0  0  0
  6  5  1  0  0  0  0
  4  5  1  0  0  0  0
  4  3  2  0  0  0  0
M  END
>  <InstanceId>
5JSQ_6MS_A_301

>  <ChemCompId>
6MS

>  <PdbId>
5JSQ

>  <ChainId>
A

>  <ResidueNumber>
301

>  <InsertionCode>


>  <Model>
1

>  <AltIds>


>  <MissingHeavyAtoms>
0

>  <ObservedFormula>
C11 N5 O4 P

>  <Name>
[6-(2-amino-6-oxo-1,6-dihydro-9H-purin-9-yl)hexyl]phosphonic acid

>  <SystematicName>
6-(2-azanyl-6-oxidanylidene-1~{H}-purin-9-yl)hexylphosphonic acid

>  <Synonyms>
9-[7-(phosphonoheptyl]guanine

>  <Type>
NON-POLYMER

>  <Formula>
C11 H18 N5 O4 P

>  <MolecularWeight>
315.265

>  <ModifiedDate>
2020-06-17

>  <Parent>


>  <OneLetterCode>


>  <SubcomponentList>


>  <AmbiguousFlag>
N

>  <InChI>
InChI=1S/C11H18N5O4P/c12-11-14-9-8(10(17)15-11)13-7-16(9)5-3-1-2-4-6-21(18,19)20/h7H,1-6H2,(H2,18,19,20)(H3,12,14,15,17)

>  <InChIKey>
CULYTKHWSUTBGY-UHFFFAOYSA-N

>  <SMILES>
c1nc2c(n1CCCCCCP(=O)(O)O)N=C(NC2=O)N

$$$$
