3M96_E38_A_265
  RCSB PDB08012019463D
Coordinates from PDB:3M96:A:265 Model:1 without hydrogens
 25 27  0  0  0  0            999 V2000
   -0.2710    4.6250   11.0300   N 0  0  0  0  0  0  0  0  0  0  0  0
   -1.1940    3.7840   11.5270   C 0  0  0  0  0  0  0  0  0  0  0  0
   -1.8170    4.3030   12.6130   N 0  0  0  0  0  0  0  0  0  0  0  0
   -1.2880    5.5040   12.7800   C 0  0  0  0  0  0  0  0  0  0  0  0
   -0.3130    5.7000   11.8200   C 0  0  0  0  0  0  0  0  0  0  0  0
    0.4660    6.8740   11.7480   C 0  0  0  0  0  0  0  0  0  0  0  0
    0.2040    7.8520   12.7210   C 0  0  0  0  0  0  0  0  0  0  0  0
   -0.8230    7.5760   13.6760   C 0  0  0  0  0  0  0  0  0  0  0  0
   -1.6080    6.4480   13.7310   C 0  0  0  0  0  0  0  0  0  0  0  0
   -1.6170    2.1790   10.8660   S 0  0  0  0  0  0  0  0  0  0  0  0
   -3.0000    1.7600   12.0340   C 0  0  0  0  0  0  0  0  0  0  0  0
   -4.1650    2.7500   12.1140   C 0  0  0  0  0  0  0  0  0  0  0  0
   -4.6320    3.3460   11.0770   O 0  0  0  0  0  0  0  0  0  0  0  0
   -1.2970    8.7700   15.0770  Br 0  0  0  0  0  0  0  0  0  0  0  0
   -4.7670    3.0550   13.5230   C 0  0  0  0  0  0  0  0  0  0  0  0
   -5.0000    1.9870   14.4210   C 0  0  0  0  0  0  0  0  0  0  0  0
   -5.5450    2.1980   15.6290   C 0  0  0  0  0  0  0  0  0  0  0  0
   -5.9720    3.4660   16.0130   C 0  0  0  0  0  0  0  0  0  0  0  0
   -5.7520    4.5410   15.1320   C 0  0  0  0  0  0  0  0  0  0  0  0
   -5.1900    4.3260   13.9260   C 0  0  0  0  0  0  0  0  0  0  0  0
   -5.8940    0.7730   16.6870   S 0  0  0  0  0  0  0  0  0  0  0  0
   -7.3930    0.6870   16.6940   O 0  0  0  0  0  0  0  0  0  0  0  0
   -6.7030    3.7980   17.4640  Cl 0  0  0  0  0  0  0  0  0  0  0  0
   -5.2650    1.0420   17.9690   O 0  0  0  0  0  0  0  0  0  0  0  0
   -5.2850   -0.5600   16.0000   N 0  0  0  0  0  0  0  0  0  0  0  0
  1  2  1  0  0  0  0
  1  5  1  0  0  0  0
 10  2  1  0  0  0  0
  2  3  2  0  0  0  0
  3  4  1  0  0  0  0
  5  4  2  0  0  0  0
  4  9  1  0  0  0  0
  6  5  1  0  0  0  0
  6  7  2  0  0  0  0
  7  8  1  0  0  0  0
  8  9  2  0  0  0  0
  8 14  1  0  0  0  0
 10 11  1  0  0  0  0
 11 12  1  0  0  0  0
 13 12  2  0  0  0  0
 12 15  1  0  0  0  0
 15 20  2  0  0  0  0
 15 16  1  0  0  0  0
 16 17  2  0  0  0  0
 17 18  1  0  0  0  0
 17 21  1  0  0  0  0
 19 18  2  0  0  0  0
 18 23  1  0  0  0  0
 20 19  1  0  0  0  0
 25 21  1  0  0  0  0
 21 22  2  0  0  0  0
 21 24  2  0  0  0  0
M  END
>  <InstanceId>
3M96_E38_A_265

>  <ChemCompId>
E38

>  <PdbId>
3M96

>  <ChainId>
A

>  <ResidueNumber>
265

>  <InsertionCode>


>  <Model>
1

>  <AltIds>


>  <MissingHeavyAtoms>
0

>  <ObservedFormula>
C15 N3 O3 Br S2 Cl

>  <Name>
5-{[(5-bromo-1H-benzimidazol-2-yl)sulfanyl]acetyl}-2-chlorobenzenesulfonamide

>  <SystematicName>
5-[2-[(5-bromo-1H-benzimidazol-2-yl)sulfanyl]ethanoyl]-2-chloro-benzenesulfonamide

>  <Synonyms>


>  <Type>
NON-POLYMER

>  <Formula>
C15 H11 Br Cl N3 O3 S2

>  <MolecularWeight>
460.753

>  <ModifiedDate>
2011-06-04

>  <Parent>


>  <OneLetterCode>


>  <SubcomponentList>


>  <AmbiguousFlag>
N

>  <InChI>
InChI=1S/C15H11BrClN3O3S2/c16-9-2-4-11-12(6-9)20-15(19-11)24-7-13(21)8-1-3-10(17)14(5-8)25(18,22)23/h1-6H,7H2,(H,19,20)(H2,18,22,23)

>  <InChIKey>
ABLVCEKUEJSYQL-UHFFFAOYSA-N

>  <SMILES>
c1cc(c(cc1C(=O)CSc2[nH]c3ccc(cc3n2)Br)S(=O)(=O)N)Cl

$$$$
