5L4M_SBK_A_201
  RCSB PDB08022002073D
Coordinates from PDB:5L4M:A:201 Model:1 without hydrogens
 14 14  0  0  0  0            999 V2000
  -22.1570   -0.0760  -23.6180   C 0  0  0  0  0  0  0  0  0  0  0  0
  -21.9950    0.8930  -24.6570   C 0  0  0  0  0  0  0  0  0  0  0  0
  -21.0420    0.6400  -25.6690   C 0  0  0  0  0  0  0  0  0  0  0  0
  -20.3060   -0.4520  -25.6780   N 0  0  0  0  0  0  0  0  0  0  0  0
  -20.4530   -1.3570  -24.7090   C 0  0  0  0  0  0  0  0  0  0  0  0
  -21.3610   -1.2370  -23.6350   C 0  0  0  0  0  0  0  0  0  0  0  0
  -21.5190   -2.4780  -22.3850  Cl 0  0  0  0  0  0  0  0  0  0  0  0
  -19.4160   -2.7390  -24.8300  Cl 0  0  0  0  0  0  0  0  0  0  0  0
  -20.9070    1.5550  -26.6530   O 0  0  0  0  0  0  0  0  0  0  0  0
  -20.3560    1.0950  -27.9190   C 0  0  0  0  0  0  0  0  0  0  0  0
  -21.2800    0.1060  -28.5650   C 0  0  0  0  0  0  0  0  0  0  0  0
  -22.0540   -0.6400  -27.8250   O 0  0  0  0  0  0  0  0  0  0  0  0
  -21.2840    0.0100  -29.7800   O 0  0  0  0  0  0  0  0  0  0  0  0
  -22.9690    2.3590  -24.6650  Cl 0  0  0  0  0  0  0  0  0  0  0  0
 13 11  2  0  0  0  0
 11 10  1  0  0  0  0
 11 12  1  0  0  0  0
 10  9  1  0  0  0  0
  9  3  1  0  0  0  0
  4  3  2  0  0  0  0
  4  5  1  0  0  0  0
  3  2  1  0  0  0  0
  8  5  1  0  0  0  0
  5  6  2  0  0  0  0
 14  2  1  0  0  0  0
  2  1  2  0  0  0  0
  6  1  1  0  0  0  0
  6  7  1  0  0  0  0
M  END
>  <InstanceId>
5L4M_SBK_A_201

>  <ChemCompId>
SBK

>  <PdbId>
5L4M

>  <ChainId>
A

>  <ResidueNumber>
201

>  <InsertionCode>


>  <Model>
1

>  <AltIds>


>  <MissingHeavyAtoms>
0

>  <ObservedFormula>
C7 N O3 Cl3

>  <Name>
Triclopyr

>  <SystematicName>
2-[3,5,6-tris(chloranyl)pyridin-2-yl]oxyethanoic acid

>  <Synonyms>


>  <Type>
NON-POLYMER

>  <Formula>
C7 H4 Cl3 N O3

>  <MolecularWeight>
256.471

>  <ModifiedDate>
2016-09-30

>  <Parent>


>  <OneLetterCode>


>  <SubcomponentList>


>  <AmbiguousFlag>
N

>  <InChI>
InChI=1S/C7H4Cl3NO3/c8-3-1-4(9)7(11-6(3)10)14-2-5(12)13/h1H,2H2,(H,12,13)

>  <InChIKey>
REEQLXCGVXDJSQ-UHFFFAOYSA-N

>  <SMILES>
c1c(c(nc(c1Cl)Cl)OCC(=O)O)Cl

$$$$
