2AX9_BHM_A_1
  RCSB PDB08012016393D
Coordinates from PDB:2AX9:A:1 Model:1 without hydrogens
 21 21  0  0  0  0            999 V2000
   30.7480    1.5620    6.2840  Br 0  0  0  0  0  0  0  0  0  0  0  0
   30.2680    0.0440    5.1690   C 0  0  0  0  0  0  0  0  0  0  0  0
   29.7970    0.5240    3.7940   C 0  0  0  0  0  0  0  0  0  0  0  0
   30.8330    1.3130    3.2020   O 0  0  0  0  0  0  0  0  0  0  0  0
   29.4750   -0.6770    2.9030   C 0  0  0  0  0  0  0  0  0  0  0  0
   28.5410    1.3860    3.9430   C 0  0  0  0  0  0  0  0  0  0  0  0
   27.4770    0.8860    4.3090   O 0  0  0  0  0  0  0  0  0  0  0  0
   28.7280    2.6800    3.6910   N 0  0  0  0  0  0  0  0  0  0  0  0
   27.7870    3.6220    3.7460   C 0  0  0  0  0  0  0  0  0  0  0  0
   26.4540    3.3450    4.0380   C 0  0  0  0  0  0  0  0  0  0  0  0
   28.1540    4.9350    3.4700   C 0  0  0  0  0  0  0  0  0  0  0  0
   27.1930    5.9390    3.5080   C 0  0  0  0  0  0  0  0  0  0  0  0
   25.8650    5.6570    3.8170   C 0  0  0  0  0  0  0  0  0  0  0  0
   25.0390    6.7030    3.8740   N 0  3  0  0  0  0  0  0  0  0  0  0
   23.6970    6.6110    4.3290   O 0  0  0  0  0  0  0  0  0  0  0  0
   25.5390    8.0010    3.5840   O 0  5  0  0  0  0  0  0  0  0  0  0
   25.4740    4.3390    4.0700   C 0  0  0  0  0  0  0  0  0  0  0  0
   24.0080    3.9230    4.2900   C 0  0  0  0  0  0  0  0  0  0  0  0
   23.6120    4.2800    5.5080   F 0  0  0  0  0  0  0  0  0  0  0  0
   23.1820    4.4620    3.3970   F 0  0  0  0  0  0  0  0  0  0  0  0
   23.8340    2.6090    4.1820   F 0  0  0  0  0  0  0  0  0  0  0  0
  1  2  1  0  0  0  0
  2  3  1  0  0  0  0
  3  4  1  0  0  0  0
  3  5  1  0  0  0  0
  3  6  1  0  0  0  0
  6  7  2  0  0  0  0
  6  8  1  0  0  0  0
  8  9  1  0  0  0  0
  9 10  2  0  0  0  0
  9 11  1  0  0  0  0
 10 17  1  0  0  0  0
 11 12  2  0  0  0  0
 12 13  1  0  0  0  0
 13 14  1  0  0  0  0
 13 17  2  0  0  0  0
 14 15  2  0  0  0  0
 14 16  1  0  0  0  0
 17 18  1  0  0  0  0
 18 19  1  0  0  0  0
 18 20  1  0  0  0  0
 18 21  1  0  0  0  0
M  CHG  2  14   1  16  -1
M  END
>  <InstanceId>
2AX9_BHM_A_1

>  <ChemCompId>
BHM

>  <PdbId>
2AX9

>  <ChainId>
A

>  <ResidueNumber>
1

>  <InsertionCode>


>  <Model>
1

>  <AltIds>


>  <MissingHeavyAtoms>
0

>  <ObservedFormula>
C11 N2 O4 Br F3

>  <Name>
(R)-3-BROMO-2-HYDROXY-2-METHYL-N-[4-NITRO-3-(TRIFLUOROMETHYL)PHENYL]PROPANAMIDE

>  <SystematicName>
(2R)-3-bromo-2-hydroxy-2-methyl-N-[4-nitro-3-(trifluoromethyl)phenyl]propanamide

>  <Synonyms>


>  <Type>
NON-POLYMER

>  <Formula>
C11 H10 Br F3 N2 O4

>  <MolecularWeight>
371.107

>  <ModifiedDate>
2011-06-04

>  <Parent>


>  <OneLetterCode>


>  <SubcomponentList>


>  <AmbiguousFlag>
N

>  <InChI>
InChI=1S/C11H10BrF3N2O4/c1-10(19,5-12)9(18)16-6-2-3-8(17(20)21)7(4-6)11(13,14)15/h2-4,19H,5H2,1H3,(H,16,18)/t10-/m0/s1

>  <InChIKey>
QDSWNDMHSBZXKX-JTQLQIEISA-N

>  <SMILES>
C[C@](CBr)(C(=O)Nc1ccc(c(c1)C(F)(F)F)[N+](=O)[O-])O

$$$$
