1QBU_846_B_300
  RCSB PDB08012015473D
Coordinates from PDB:1QBU:B:300 Model:1 without hydrogens
 43 48  0  0  0  0            999 V2000
   -8.4310   14.9430   27.8830   C 0  0  0  0  0  0  0  0  0  0  0  0
   -9.1410   14.2310   30.1170   C 0  0  0  0  0  0  0  0  0  0  0  0
  -10.5030   15.9410   28.9030   C 0  0  0  0  0  0  0  0  0  0  0  0
  -10.3490   17.4280   28.6090   C 0  0  0  0  0  0  0  0  0  0  0  0
  -10.0200   17.6840   27.1590   C 0  0  0  0  0  0  0  0  0  0  0  0
   -8.6250   17.2010   26.8480   C 0  0  0  0  0  0  0  0  0  0  0  0
   -7.9940   15.1790   25.4800   C 0  0  0  0  0  0  0  0  0  0  0  0
   -9.1650   14.8710   31.5030   C 0  0  0  0  0  0  0  0  0  0  0  0
  -10.0010   14.3590   32.5370   C 0  0  0  0  0  0  0  0  0  0  0  0
   -9.9670   14.9410   33.8310   C 0  0  0  0  0  0  0  0  0  0  0  0
   -9.1170   16.0360   34.0690   C 0  0  0  0  0  0  0  0  0  0  0  0
   -8.2910   16.5500   33.0550   C 0  0  0  0  0  0  0  0  0  0  0  0
   -8.3180   15.9630   31.7790   C 0  0  0  0  0  0  0  0  0  0  0  0
  -10.7490   14.4020   35.0090   C 0  0  0  0  0  0  0  0  0  0  0  0
  -11.5060   12.2730   36.1660   C 0  0  0  0  0  0  0  0  0  0  0  0
  -12.0960   10.4150   37.3810   C 0  0  0  0  0  0  0  0  0  0  0  0
  -12.6050   11.3770   38.2760   C 0  0  0  0  0  0  0  0  0  0  0  0
  -11.6160   15.2050   28.1360   C 0  0  0  0  0  0  0  0  0  0  0  0
  -12.2960   14.1520   28.9750   C 0  0  0  0  0  0  0  0  0  0  0  0
  -12.1790   12.7890   28.6390   C 0  0  0  0  0  0  0  0  0  0  0  0
  -12.8140   11.8170   29.4460   C 0  0  0  0  0  0  0  0  0  0  0  0
  -13.5600   12.2170   30.5750   C 0  0  0  0  0  0  0  0  0  0  0  0
  -13.6810   13.5810   30.9060   C 0  0  0  0  0  0  0  0  0  0  0  0
  -13.0500   14.5510   30.1050   C 0  0  0  0  0  0  0  0  0  0  0  0
   -7.4930   17.8340   27.6890   C 0  0  0  0  0  0  0  0  0  0  0  0
   -6.1330   17.7080   27.0430   C 0  0  0  0  0  0  0  0  0  0  0  0
   -5.8060   18.5480   25.9500   C 0  0  0  0  0  0  0  0  0  0  0  0
   -4.5720   18.4030   25.2950   C 0  0  0  0  0  0  0  0  0  0  0  0
   -3.6600   17.4230   25.7340   C 0  0  0  0  0  0  0  0  0  0  0  0
   -3.9840   16.5900   26.8310   C 0  0  0  0  0  0  0  0  0  0  0  0
   -5.2240   16.7320   27.4940   C 0  0  0  0  0  0  0  0  0  0  0  0
   -8.7080   15.8910   24.3120   C 0  0  0  0  0  0  0  0  0  0  0  0
   -8.4800   15.2400   22.9400   C 0  0  0  0  0  0  0  0  0  0  0  0
   -9.8120   15.0370   23.6850   C 0  0  0  0  0  0  0  0  0  0  0  0
   -9.2970   15.0920   28.9270   N 0  0  0  0  0  0  0  0  0  0  0  0
   -8.4300   15.7430   26.7810   N 0  0  0  0  0  0  0  0  0  0  0  0
  -10.9260   13.0660   35.0450   N 0  0  0  0  0  0  0  0  0  0  0  0
  -11.5000   10.9190   36.2370   N 0  0  0  0  0  0  0  0  0  0  0  0
   -7.6190   14.0300   27.9240   O 0  0  0  0  0  0  0  0  0  0  0  0
  -11.5760   18.0250   28.9640   O 0  0  0  0  0  0  0  0  0  0  0  0
  -10.0070   19.0630   26.8620   O 0  0  0  0  0  0  0  0  0  0  0  0
  -11.1540   15.1220   35.9060   O 0  0  0  0  0  0  0  0  0  0  0  0
  -12.2660   12.8630   37.5590   S 0  0  0  0  0  0  0  0  0  0  0  0
  1 35  1  0  0  0  0
  1 36  1  0  0  0  0
  1 39  2  0  0  0  0
  2  8  1  0  0  0  0
  2 35  1  0  0  0  0
  3  4  1  0  0  0  0
  3 18  1  0  0  0  0
  3 35  1  0  0  0  0
  4  5  1  0  0  0  0
  4 40  1  0  0  0  0
  5  6  1  0  0  0  0
  5 41  1  0  0  0  0
  6 25  1  0  0  0  0
  6 36  1  0  0  0  0
  7 32  1  0  0  0  0
  7 36  1  0  0  0  0
  8  9  2  0  0  0  0
  8 13  1  0  0  0  0
  9 10  1  0  0  0  0
 10 11  2  0  0  0  0
 10 14  1  0  0  0  0
 11 12  1  0  0  0  0
 12 13  2  0  0  0  0
 14 37  1  0  0  0  0
 14 42  2  0  0  0  0
 15 37  1  0  0  0  0
 15 38  2  0  0  0  0
 15 43  1  0  0  0  0
 16 17  2  0  0  0  0
 16 38  1  0  0  0  0
 17 43  1  0  0  0  0
 18 19  1  0  0  0  0
 19 20  2  0  0  0  0
 19 24  1  0  0  0  0
 20 21  1  0  0  0  0
 21 22  2  0  0  0  0
 22 23  1  0  0  0  0
 23 24  2  0  0  0  0
 25 26  1  0  0  0  0
 26 27  2  0  0  0  0
 26 31  1  0  0  0  0
 27 28  1  0  0  0  0
 28 29  2  0  0  0  0
 29 30  1  0  0  0  0
 30 31  2  0  0  0  0
 32 33  1  0  0  0  0
 32 34  1  0  0  0  0
 33 34  1  0  0  0  0
M  END
>  <InstanceId>
1QBU_846_B_300

>  <ChemCompId>
846

>  <PdbId>
1QBU

>  <ChainId>
B

>  <ResidueNumber>
300

>  <InsertionCode>


>  <Model>
1

>  <AltIds>


>  <MissingHeavyAtoms>
0

>  <ObservedFormula>
C34 N4 O4 S

>  <Name>
[4R--(1ALPHA,5ALPHA,7BETA)]-3-[(CYCLOPROPHYLMETHYL)HEXAHYDRO-5,6-DIHYDROXY-2-OXO-4,7-BIS(PHENYLMETHYL)-1H-1,3-DIAZEPIN] METHYL-2-THIAZOLYLBENZAMIDE

>  <SystematicName>
3-[[(4R,5S,6S,7R)-3-(cyclopropylmethyl)-5,6-dihydroxy-2-oxo-4,7-bis(phenylmethyl)-1,3-diazepan-1-yl]methyl]-N-(1,3-thiazol-2-yl)benzamide

>  <Synonyms>
INHIBITOR Q8467 OF DUPONT MERCK

>  <Type>
NON-POLYMER

>  <Formula>
C34 H36 N4 O4 S

>  <MolecularWeight>
596.739

>  <ModifiedDate>
2020-06-17

>  <Parent>


>  <OneLetterCode>


>  <SubcomponentList>


>  <AmbiguousFlag>
N

>  <InChI>
InChI=1S/C34H36N4O4S/c39-30-28(19-23-8-3-1-4-9-23)37(21-25-14-15-25)34(42)38(29(31(30)40)20-24-10-5-2-6-11-24)22-26-12-7-13-27(18-26)32(41)36-33-35-16-17-43-33/h1-13,16-18,25,28-31,39-40H,14-15,19-22H2,(H,35,36,41)/t28-,29-,30+,31+/m1/s1

>  <InChIKey>
HFLCERPZYCWLSZ-VKONIRKNSA-N

>  <SMILES>
c1ccc(cc1)C[C@@H]2[C@@H]([C@H]([C@H](N(C(=O)N2Cc3cccc(c3)C(=O)Nc4nccs4)CC5CC5)Cc6ccccc6)O)O

$$$$
