5KR2_ROC_A_101
  RCSB PDB08022002053D
Coordinates from PDB:5KR2:A:101 Model:1 without hydrogens
 49 53  0  0  0  0            999 V2000
   -3.0090  -23.2730   61.1800   C 0  0  0  0  0  0  0  0  0  0  0  0
   -2.5800  -22.4770   62.0110   O 0  0  0  0  0  0  0  0  0  0  0  0
   -4.1330  -25.4140   60.6240   N 0  0  0  0  0  0  0  0  0  0  0  0
   -4.0130  -24.3920   61.5380   C 0  0  0  0  0  0  0  0  0  0  0  0
   -4.7660  -24.4240   62.7040   C 0  0  0  0  0  0  0  0  0  0  0  0
   -5.6270  -25.4670   62.9260   C 0  0  0  0  0  0  0  0  0  0  0  0
   -6.6360  -27.5760   62.2430   C 0  0  0  0  0  0  0  0  0  0  0  0
   -6.7550  -28.6100   61.3160   C 0  0  0  0  0  0  0  0  0  0  0  0
   -6.0000  -28.5850   60.1480   C 0  0  0  0  0  0  0  0  0  0  0  0
   -5.1250  -27.5170   59.9140   C 0  0  0  0  0  0  0  0  0  0  0  0
   -5.7500  -26.4980   62.0040   C 0  0  0  0  0  0  0  0  0  0  0  0
   -5.0050  -26.4680   60.8520   C 0  0  0  0  0  0  0  0  0  0  0  0
   -2.5330  -23.2250   59.8300   N 0  0  0  0  0  0  0  0  0  0  0  0
   -1.6120  -22.2260   59.4080   C 0  0  0  0  0  0  0  0  0  0  0  0
   -2.2850  -21.5730   58.2020   C 0  0  0  0  0  0  0  0  0  0  0  0
   -2.2250  -22.1120   57.1060   O 0  0  0  0  0  0  0  0  0  0  0  0
   -0.3000  -22.8250   58.9950   C 0  0  0  0  0  0  0  0  0  0  0  0
    0.4690  -23.2540   60.2280   C 0  0  0  0  0  0  0  0  0  0  0  0
    0.8080  -22.4340   61.0640   O 0  0  0  0  0  0  0  0  0  0  0  0
    0.7960  -24.6280   60.3990   N 0  0  0  0  0  0  0  0  0  0  0  0
   -2.9760  -18.3190   57.1370   C 0  0  0  0  0  0  0  0  0  0  0  0
   -3.1870  -17.4860   58.2280   O 0  0  0  0  0  0  0  0  0  0  0  0
   -3.6850  -19.6600   57.3460   C 0  0  0  0  0  0  0  0  0  0  0  0
   -3.0190  -20.3270   58.4170   N 0  0  0  0  0  0  0  0  0  0  0  0
   -5.1430  -19.4730   57.7290   C 0  0  0  0  0  0  0  0  0  0  0  0
   -5.7190  -20.7790   58.3100   C 0  0  0  0  0  0  0  0  0  0  0  0
   -6.1420  -21.7940   57.4560   C 0  0  0  0  0  0  0  0  0  0  0  0
   -5.8220  -20.9610   59.6840   C 0  0  0  0  0  0  0  0  0  0  0  0
   -6.6680  -22.9690   57.9710   C 0  0  0  0  0  0  0  0  0  0  0  0
   -6.3410  -22.1510   60.2040   C 0  0  0  0  0  0  0  0  0  0  0  0
   -6.7640  -23.1570   59.3420   C 0  0  0  0  0  0  0  0  0  0  0  0
   -2.7100  -18.2260   54.7210   N 0  0  0  0  0  0  0  0  0  0  0  0
   -3.4490  -17.6180   55.8430   C 0  0  0  0  0  0  0  0  0  0  0  0
   -3.4640  -18.0840   53.4190   C 0  0  0  0  0  0  0  0  0  0  0  0
   -4.8250  -18.6810   53.5120   C 0  0  0  0  0  0  0  0  0  0  0  0
   -5.0320  -19.7400   54.0670   O 0  0  0  0  0  0  0  0  0  0  0  0
   -2.6950  -18.6900   52.2360   C 0  0  0  0  0  0  0  0  0  0  0  0
   -1.3220  -18.0790   52.1460   C 0  0  0  0  0  0  0  0  0  0  0  0
   -0.5650  -18.7740   50.9790   C 0  0  0  0  0  0  0  0  0  0  0  0
   -0.2470  -20.2330   51.2950   C 0  0  0  0  0  0  0  0  0  0  0  0
    0.5380  -20.3560   52.5890   C 0  0  0  0  0  0  0  0  0  0  0  0
   -0.1480  -19.6450   53.7670   C 0  0  0  0  0  0  0  0  0  0  0  0
   -0.5620  -18.1880   53.4370   C 0  0  0  0  0  0  0  0  0  0  0  0
   -1.3460  -17.6280   54.6290   C 0  0  0  0  0  0  0  0  0  0  0  0
   -5.8610  -17.8920   52.8910   N 0  0  0  0  0  0  0  0  0  0  0  0
   -7.2480  -18.3170   52.8830   C 0  0  0  0  0  0  0  0  0  0  0  0
   -7.4120  -19.6440   52.1610   C 0  0  0  0  0  0  0  0  0  0  0  0
   -7.7070  -18.4400   54.3280   C 0  0  0  0  0  0  0  0  0  0  0  0
   -8.0470  -17.2760   52.1430   C 0  0  0  0  0  0  0  0  0  0  0  0
  2  1  2  0  0  0  0
  1  4  1  0  0  0  0
  3  4  2  0  0  0  0
  3 12  1  0  0  0  0
  4  5  1  0  0  0  0
  5  6  2  0  0  0  0
  6 11  1  0  0  0  0
 11  7  2  0  0  0  0
 11 12  1  0  0  0  0
  7  8  1  0  0  0  0
  8  9  2  0  0  0  0
  9 10  1  0  0  0  0
 10 12  2  0  0  0  0
 13 14  1  0  0  0  0
 14 15  1  0  0  0  0
 14 17  1  0  0  0  0
 15 16  2  0  0  0  0
 17 18  1  0  0  0  0
 18 19  2  0  0  0  0
 18 20  1  0  0  0  0
 21 22  1  0  0  0  0
 21 23  1  0  0  0  0
 23 24  1  0  0  0  0
 23 25  1  0  0  0  0
 25 26  1  0  0  0  0
 26 27  2  0  0  0  0
 26 28  1  0  0  0  0
 27 29  1  0  0  0  0
 28 30  2  0  0  0  0
 29 31  2  0  0  0  0
 30 31  1  0  0  0  0
 32 33  1  0  0  0  0
 32 34  1  0  0  0  0
 32 44  1  0  0  0  0
 34 35  1  0  0  0  0
 34 37  1  0  0  0  0
 35 36  2  0  0  0  0
 37 38  1  0  0  0  0
 38 39  1  0  0  0  0
 38 43  1  0  0  0  0
 39 40  1  0  0  0  0
 40 41  1  0  0  0  0
 41 42  1  0  0  0  0
 42 43  1  0  0  0  0
 43 44  1  0  0  0  0
 45 46  1  0  0  0  0
 46 47  1  0  0  0  0
 46 48  1  0  0  0  0
 46 49  1  0  0  0  0
  1 13  1  0  0  0  0
 15 24  1  0  0  0  0
 21 33  1  0  0  0  0
 35 45  1  0  0  0  0
M  END
>  <InstanceId>
5KR2_ROC_A_101

>  <ChemCompId>
ROC

>  <PdbId>
5KR2

>  <ChainId>
A

>  <ResidueNumber>
101

>  <InsertionCode>


>  <Model>
1

>  <AltIds>


>  <MissingHeavyAtoms>
0

>  <ObservedFormula>
C38 N6 O5

>  <Name>
(2S)-N-[(2S,3R)-4-[(2S,3S,4aS,8aS)-3-(tert-butylcarbamoyl)-3,4,4a,5,6,7,8,8a-octahydro-1H-isoquinolin-2-yl]-3-hydroxy-1 -phenyl-butan-2-yl]-2-(quinolin-2-ylcarbonylamino)butanediamide

>  <SystematicName>
(2S)-N-[(2S,3R)-4-[(2S,3S,4aS,8aS)-3-(tert-butylcarbamoyl)-3,4,4a,5,6,7,8,8a-octahydro-1H-isoquinolin-2-yl]-3-hydroxy-1-phenyl-butan-2-yl]-2-(quinolin-2-ylcarbonylamino)butanediamide

>  <Synonyms>
Fortovase; SAQUINAVIR; RO 31-8959

>  <Type>
peptide-like

>  <Formula>
C38 H50 N6 O5

>  <MolecularWeight>
670.841

>  <ModifiedDate>
2020-07-02

>  <Parent>


>  <OneLetterCode>


>  <SubcomponentList>
QNC ASN HP0 NTB

>  <AmbiguousFlag>
N

>  <InChI>
InChI=1S/C38H50N6O5/c1-38(2,3)43-37(49)32-20-26-14-7-8-15-27(26)22-44(32)23-33(45)30(19-24-11-5-4-6-12-24)41-36(48)31(21-34(39)46)42-35(47)29-18-17-25-13-9-10-16-28(25)40-29/h4-6,9-13,16-18,26-27,30-33,45H,7-8,14-15,19-23H2,1-3H3,(H2,39,46)(H,41,48)(H,42,47)(H,43,49)/t26-,27+,30-,31-,32-,33+/m0/s1

>  <InChIKey>
QWAXKHKRTORLEM-UGJKXSETSA-N

>  <SMILES>
CC(C)(C)NC(=O)[C@@H]1C[C@@H]2CCCC[C@@H]2C[N@]1C[C@H]([C@H](Cc3ccccc3)NC(=O)[C@H](CC(=O)N)NC(=O)c4ccc5ccccc5n4)O

$$$$
