3AO5_BBY_A_213
  RCSB PDB08012018343D
Coordinates from PDB:3AO5:A:213 Model:1 without hydrogens
 17 19  0  0  0  0            999 V2000
   14.9450  -10.0780   -5.7960   C 0  0  0  0  0  0  0  0  0  0  0  0
   14.3810   -9.2090   -6.7500   C 0  0  0  0  0  0  0  0  0  0  0  0
   13.0470   -8.7730   -6.6830   C 0  0  0  0  0  0  0  0  0  0  0  0
   12.1860   -9.1890   -5.6720   C 0  0  0  0  0  0  0  0  0  0  0  0
   12.7530  -10.0970   -4.6580   C 0  0  0  0  0  0  0  0  0  0  0  0
   14.1370  -10.5180   -4.7580   C 0  0  0  0  0  0  0  0  0  0  0  0
   14.3840  -11.3570   -3.7090   O 0  0  0  0  0  0  0  0  0  0  0  0
   13.1300  -11.6490   -3.0480   C 0  0  0  0  0  0  0  0  0  0  0  0
   12.1950  -10.6810   -3.5620   O 0  0  0  0  0  0  0  0  0  0  0  0
   15.2360   -8.7130   -7.8650   C 0  0  0  0  0  0  0  0  0  0  0  0
   15.1040   -7.5430   -8.5250   N 0  0  0  0  0  0  0  0  0  0  0  0
   16.0820   -7.3810   -9.5150   N 0  0  0  0  0  0  0  0  0  0  0  0
   16.7910   -8.5140   -9.3860   C 0  0  0  0  0  0  0  0  0  0  0  0
   16.3390   -9.3730   -8.4020   C 0  0  0  0  0  0  0  0  0  0  0  0
   10.3970   -8.6090   -5.5840  Br 0  0  0  0  0  0  0  0  0  0  0  0
   14.1460   -6.4130   -8.4300   C 0  0  0  0  0  0  0  0  0  0  0  0
   17.8660   -8.7930  -10.1640   N 0  0  0  0  0  0  0  0  0  0  0  0
  1  2  2  0  0  0  0
  1  6  1  0  0  0  0
  2  3  1  0  0  0  0
  2 10  1  0  0  0  0
  3  4  2  0  0  0  0
  4  5  1  0  0  0  0
  4 15  1  0  0  0  0
  5  6  2  0  0  0  0
  5  9  1  0  0  0  0
  6  7  1  0  0  0  0
  7  8  1  0  0  0  0
  8  9  1  0  0  0  0
 10 11  1  0  0  0  0
 10 14  2  0  0  0  0
 11 12  1  0  0  0  0
 11 16  1  0  0  0  0
 12 13  2  0  0  0  0
 13 14  1  0  0  0  0
 13 17  1  0  0  0  0
M  END
>  <InstanceId>
3AO5_BBY_A_213

>  <ChemCompId>
BBY

>  <PdbId>
3AO5

>  <ChainId>
A

>  <ResidueNumber>
213

>  <InsertionCode>


>  <Model>
1

>  <AltIds>


>  <MissingHeavyAtoms>
0

>  <ObservedFormula>
C11 N3 O2 Br

>  <Name>
5-(7-bromo-1,3-benzodioxol-5-yl)-1-methyl-1H-pyrazol-3-amine

>  <SystematicName>
5-(7-bromo-1,3-benzodioxol-5-yl)-1-methyl-pyrazol-3-amine

>  <Synonyms>


>  <Type>
NON-POLYMER

>  <Formula>
C11 H10 Br N3 O2

>  <MolecularWeight>
296.12

>  <ModifiedDate>
2011-06-04

>  <Parent>


>  <OneLetterCode>


>  <SubcomponentList>


>  <AmbiguousFlag>
N

>  <InChI>
InChI=1S/C11H10BrN3O2/c1-15-8(4-10(13)14-15)6-2-7(12)11-9(3-6)16-5-17-11/h2-4H,5H2,1H3,(H2,13,14)

>  <InChIKey>
OZBMCGHXSVNTHG-UHFFFAOYSA-N

>  <SMILES>
Cn1c(cc(n1)N)c2cc3c(c(c2)Br)OCO3

$$$$
