1D3P_BT3_B_400
  RCSB PDB08012014443D
Coordinates from PDB:1D3P:B:400 Model:1 without hydrogens
 39 44  0  0  0  0            999 V2000
  -23.9940  -30.7750   24.3250   C 0  0  0  0  0  0  0  0  0  0  0  0
  -24.3270  -32.0090   23.5060   C 0  0  0  0  0  0  0  0  0  0  0  0
  -23.4380  -32.3890   22.3880   C 0  0  0  0  0  0  0  0  0  0  0  0
  -22.2370  -31.5650   22.0390   C 0  0  0  0  0  0  0  0  0  0  0  0
  -21.9300  -30.3610   22.8010   C 0  0  0  0  0  0  0  0  0  0  0  0
  -22.7970  -29.9500   23.9710   C 0  0  0  0  0  0  0  0  0  0  0  0
  -23.4720  -33.7660   21.3860   S 0  0  0  0  0  0  0  0  0  0  0  0
  -22.0890  -33.3730   20.4860   C 0  0  0  0  0  0  0  0  0  0  0  0
  -21.4850  -32.1650   20.9830   C 0  0  0  0  0  0  0  0  0  0  0  0
  -20.0220  -31.7720   20.6760   C 0  0  0  0  0  0  0  0  0  0  0  0
  -21.5670  -34.2480   19.4080   C 0  0  0  0  0  0  0  0  0  0  0  0
  -20.9210  -33.7190   18.1810   C 0  0  0  0  0  0  0  0  0  0  0  0
  -20.2840  -34.6560   17.1910   C 0  0  0  0  0  0  0  0  0  0  0  0
  -20.4120  -36.1460   17.5260   C 0  0  0  0  0  0  0  0  0  0  0  0
  -21.0100  -36.6180   18.7200   N 0  0  0  0  0  0  0  0  0  0  0  0
  -21.5800  -35.7130   19.6340   C 0  0  0  0  0  0  0  0  0  0  0  0
  -20.2720  -36.9910   16.5030   O 0  0  0  0  0  0  0  0  0  0  0  0
  -19.2670  -38.0560   16.8160   C 0  0  0  0  0  0  0  0  0  0  0  0
  -18.9900  -33.8760   22.0940   C 0  0  0  0  0  0  0  0  0  0  0  0
  -18.8250  -32.6320   21.2430   C 0  0  0  0  0  0  0  0  0  0  0  0
  -17.4020  -32.2260   20.9170   C 0  0  0  0  0  0  0  0  0  0  0  0
  -16.2300  -33.0930   21.3540   C 0  0  0  0  0  0  0  0  0  0  0  0
  -16.4900  -34.3800   22.0930   C 0  0  0  0  0  0  0  0  0  0  0  0
  -17.8510  -34.7010   22.5430   C 0  0  0  0  0  0  0  0  0  0  0  0
  -15.4370  -35.2690   22.1850   O 0  0  0  0  0  0  0  0  0  0  0  0
  -15.2970  -36.3530   23.1420   C 0  0  0  0  0  0  0  0  0  0  0  0
  -13.3210  -33.9030   26.1030   C 0  0  0  0  0  0  0  0  0  0  0  0
  -14.3200  -34.1770   27.1840   C 0  0  0  0  0  0  0  0  0  0  0  0
  -15.1360  -35.4110   26.7880   C 0  0  0  0  0  0  0  0  0  0  0  0
  -14.5280  -35.7720   25.4690   N 0  0  0  0  0  0  0  0  0  0  0  0
  -13.7400  -34.6460   24.8620   C 0  0  0  0  0  0  0  0  0  0  0  0
  -18.3920  -37.5470   13.8330   C 0  0  0  0  0  0  0  0  0  0  0  0
  -17.7740  -38.3120   14.9930   N 0  0  0  0  0  0  0  0  0  0  0  0
  -16.5970  -39.1690   14.5220   C 0  0  0  0  0  0  0  0  0  0  0  0
  -16.1140  -38.3340   13.3300   C 0  0  0  0  0  0  0  0  0  0  0  0
  -17.1020  -37.1810   13.1160   C 0  0  0  0  0  0  0  0  0  0  0  0
  -15.6990  -36.0210   24.5810   C 0  0  0  0  0  0  0  0  0  0  0  0
  -19.0660  -38.8860   15.5360   C 0  0  0  0  0  0  0  0  0  0  0  0
  -24.6930  -30.4970   25.4850   O 0  0  0  0  0  0  0  0  0  0  0  0
  1  2  2  0  0  0  0
  1  6  1  0  0  0  0
  1 39  1  0  0  0  0
  2  3  1  0  0  0  0
  3  4  2  0  0  0  0
  3  7  1  0  0  0  0
  4  5  1  0  0  0  0
  4  9  1  0  0  0  0
  5  6  2  0  0  0  0
  7  8  1  0  0  0  0
  8  9  2  0  0  0  0
  8 11  1  0  0  0  0
  9 10  1  0  0  0  0
 10 20  1  0  0  0  0
 11 12  2  0  0  0  0
 11 16  1  0  0  0  0
 12 13  1  0  0  0  0
 13 14  2  0  0  0  0
 14 15  1  0  0  0  0
 14 17  1  0  0  0  0
 15 16  2  0  0  0  0
 17 18  1  0  0  0  0
 18 38  1  0  0  0  0
 19 20  2  0  0  0  0
 19 24  1  0  0  0  0
 20 21  1  0  0  0  0
 21 22  2  0  0  0  0
 22 23  1  0  0  0  0
 23 24  2  0  0  0  0
 23 25  1  0  0  0  0
 25 26  1  0  0  0  0
 26 37  1  0  0  0  0
 27 28  1  0  0  0  0
 27 31  1  0  0  0  0
 28 29  1  0  0  0  0
 29 30  1  0  0  0  0
 30 31  1  0  0  0  0
 30 37  1  0  0  0  0
 32 33  1  0  0  0  0
 32 36  1  0  0  0  0
 33 34  1  0  0  0  0
 33 38  1  0  0  0  0
 34 35  1  0  0  0  0
 35 36  1  0  0  0  0
M  END
>  <InstanceId>
1D3P_BT3_B_400

>  <ChemCompId>
BT3

>  <PdbId>
1D3P

>  <ChainId>
B

>  <ResidueNumber>
400

>  <InsertionCode>


>  <Model>
1

>  <AltIds>


>  <MissingHeavyAtoms>
0

>  <ObservedFormula>
C32 N3 O3 S

>  <Name>
3-[4-(2-PYRROLIDIN-1-YL-ETHOXY)-BENZYL]-2-4-(2-PYRROLIDIN-1-YL-ETHOXY)-PHENYL] -BENZO[B]THIOPHEN-6-OL

>  <SystematicName>
3-[[4-(2-pyrrolidin-1-ylethoxy)phenyl]methyl]-2-[6-(2-pyrrolidin-1-ylethoxy)pyridin-3-yl]-1-benzothiophen-6-ol

>  <Synonyms>


>  <Type>
NON-POLYMER

>  <Formula>
C32 H37 N3 O3 S

>  <MolecularWeight>
543.719

>  <ModifiedDate>
2011-06-04

>  <Parent>


>  <OneLetterCode>


>  <SubcomponentList>


>  <AmbiguousFlag>
N

>  <InChI>
InChI=1S/C32H37N3O3S/c36-26-8-11-28-29(21-24-5-9-27(10-6-24)37-19-17-34-13-1-2-14-34)32(39-30(28)22-26)25-7-12-31(33-23-25)38-20-18-35-15-3-4-16-35/h5-12,22-23,36H,1-4,13-21H2

>  <InChIKey>
KEDLOQLGBOISAT-UHFFFAOYSA-N

>  <SMILES>
c1cc(ccc1Cc2c3ccc(cc3sc2c4ccc(nc4)OCCN5CCCC5)O)OCCN6CCCC6

$$$$
