5J86_6GW_A_301
  RCSB PDB08022001523D
Coordinates from PDB:5J86:A:301 Model:1 without hydrogens
 31 34  0  0  0  0            999 V2000
  -33.3160   -7.5230   24.7270   C 0  0  0  0  0  0  0  0  0  0  0  0
  -32.7820  -12.3650   23.0140   C 0  0  0  0  0  0  0  0  0  0  0  0
  -31.5120  -12.0450   23.5220   C 0  0  0  0  0  0  0  0  0  0  0  0
  -33.9430  -11.9340   23.6860   C 0  0  0  0  0  0  0  0  0  0  0  0
  -32.5030  -10.0530   26.6170   C 0  0  0  0  0  0  0  0  0  0  0  0
  -32.8810   -8.3560   27.9790   C 0  0  0  0  0  0  0  0  0  0  0  0
  -33.9710   -8.1790   25.7790   C 0  0  0  0  0  0  0  0  0  0  0  0
  -35.4390   -6.8920   23.7630   C 0  0  0  0  0  0  0  0  0  0  0  0
  -36.1470   -8.8510   26.9160   C 0  0  0  0  0  0  0  0  0  0  0  0
  -35.3290  -12.3140   23.3230   C 0  0  0  0  0  0  0  0  0  0  0  0
  -37.2190  -13.9100   23.5240   C 0  0  0  0  0  0  0  0  0  0  0  0
  -34.9180  -14.5340   24.3340   C 0  0  0  0  0  0  0  0  0  0  0  0
  -39.0900  -15.1110   26.5350   C 0  0  0  0  0  0  0  0  0  0  0  0
  -38.5120  -15.2110   25.2780   C 0  0  0  0  0  0  0  0  0  0  0  0
  -31.4150  -11.3170   24.7110   C 0  0  0  0  0  0  0  0  0  0  0  0
  -32.5720  -10.9120   25.4060   C 0  0  0  0  0  0  0  0  0  0  0  0
  -33.8230  -11.2360   24.8900   C 0  0  0  0  0  0  0  0  0  0  0  0
  -31.8170  -10.2850   27.7080   N 0  0  0  0  0  0  0  0  0  0  0  0
  -33.1720   -8.8380   26.7560   N 0  0  0  0  0  0  0  0  0  0  0  0
  -30.2020  -11.0240   25.2310   O 0  0  0  0  0  0  0  0  0  0  0  0
  -32.8970  -13.0350   21.8490   O 0  0  0  0  0  0  0  0  0  0  0  0
  -32.0550   -9.2300   28.5860   N 0  0  0  0  0  0  0  0  0  0  0  0
  -33.3010   -7.3140   28.4450   O 0  0  0  0  0  0  0  0  0  0  0  0
  -35.3790   -8.1760   25.8120   C 0  0  0  0  0  0  0  0  0  0  0  0
  -36.1090   -7.5410   24.7990   C 0  0  0  0  0  0  0  0  0  0  0  0
  -35.8020  -13.5390   23.7020   N 0  0  0  0  0  0  0  0  0  0  0  0
  -36.0620  -11.4870   22.8190   O 0  0  0  0  0  0  0  0  0  0  0  0
  -37.9350  -14.0850   24.8410   C 0  0  0  0  0  0  0  0  0  0  0  0
  -34.0430   -6.8890   23.7220   C 0  0  0  0  0  0  0  0  0  0  0  0
  -38.1140  -12.8170   26.0430   S 0  0  0  0  0  0  0  0  0  0  0  0
  -38.9970  -13.9030   27.1130   C 0  0  0  0  0  0  0  0  0  0  0  0
 21  2  1  0  0  0  0
 27 10  2  0  0  0  0
  2  3  2  0  0  0  0
  2  4  1  0  0  0  0
 10  4  1  0  0  0  0
 10 26  1  0  0  0  0
  3 15  1  0  0  0  0
 11 26  1  0  0  0  0
 11 28  1  0  0  0  0
  4 17  2  0  0  0  0
 26 12  1  0  0  0  0
 29  8  2  0  0  0  0
 29  1  1  0  0  0  0
  8 25  1  0  0  0  0
 15 20  1  0  0  0  0
 15 16  2  0  0  0  0
  1  7  2  0  0  0  0
 25 24  2  0  0  0  0
 28 14  2  0  0  0  0
 28 30  1  0  0  0  0
 17 16  1  0  0  0  0
 14 13  1  0  0  0  0
 16  5  1  0  0  0  0
  7 24  1  0  0  0  0
  7 19  1  0  0  0  0
 24  9  1  0  0  0  0
 30 31  1  0  0  0  0
 13 31  2  0  0  0  0
  5 19  1  0  0  0  0
  5 18  2  0  0  0  0
 19  6  1  0  0  0  0
 18 22  1  0  0  0  0
  6 23  2  0  0  0  0
  6 22  1  0  0  0  0
M  END
>  <InstanceId>
5J86_6GW_A_301

>  <ChemCompId>
6GW

>  <PdbId>
5J86

>  <ChainId>
A

>  <ResidueNumber>
301

>  <InsertionCode>


>  <Model>
1

>  <AltIds>


>  <MissingHeavyAtoms>
0

>  <ObservedFormula>
C22 N4 O4 S

>  <Name>
2,4-dihydroxy-N-methyl-5-[4-(2-methylphenyl)-5-oxo-4,5-dihydro-1H-1,2,4-triazol-3-yl]-N-[(thiophen-2-yl)methyl]benzamide

>  <SystematicName>
~{N}-methyl-5-[4-(2-methylphenyl)-5-oxidanylidene-1~{H}-1,2,4-triazol-3-yl]-2,4-bis(oxidanyl)-~{N}-(thiophen-2-ylmethyl)benzamide

>  <Synonyms>


>  <Type>
NON-POLYMER

>  <Formula>
C22 H20 N4 O4 S

>  <MolecularWeight>
436.484

>  <ModifiedDate>
2017-12-01

>  <Parent>


>  <OneLetterCode>


>  <SubcomponentList>


>  <AmbiguousFlag>
N

>  <InChI>
InChI=1S/C22H20N4O4S/c1-13-6-3-4-8-17(13)26-20(23-24-22(26)30)15-10-16(19(28)11-18(15)27)21(29)25(2)12-14-7-5-9-31-14/h3-11,27-28H,12H2,1-2H3,(H,24,30)

>  <InChIKey>
VAHNSEIURMSJCK-UHFFFAOYSA-N

>  <SMILES>
Cc1ccccc1N2C(=NNC2=O)c3cc(c(cc3O)O)C(=O)N(C)Cc4cccs4

$$$$
