6GF9_X90_A_201
  RCSB PDB08022004483D
Coordinates from PDB:6GF9:A:201 Model:1 without hydrogens
 19 18  0  0  0  0            999 V2000
    2.3270   -0.3780   54.6890   O 0  0  0  0  0  0  0  0  0  0  0  0
    2.5390   -0.7480   55.8680   C 0  0  0  0  0  0  0  0  0  0  0  0
    1.9040   -0.2810   56.8420   O 0  0  0  0  0  0  0  0  0  0  0  0
    3.6070   -1.8000   56.0860   C 0  0  0  0  0  0  0  0  0  0  0  0
    4.1560   -1.8090   57.5120   C 0  0  0  0  0  0  0  0  0  0  0  0
    5.2520   -0.7680   57.7250   C 0  0  0  0  0  0  0  0  0  0  0  0
    6.5700   -1.2140   57.1060   C 0  0  0  0  0  0  0  0  0  0  0  0
    7.7160   -0.3440   57.5960   C 0  0  0  0  0  0  0  0  0  0  0  0
    8.9120   -0.4530   56.6680   C 0  0  0  0  0  0  0  0  0  0  0  0
    9.3860   -1.8890   56.5910   C 0  0  0  0  0  0  0  0  0  0  0  0
   10.7600   -1.9590   55.9380   C 0  0  0  0  0  0  0  0  0  0  0  0
   12.9120   -3.1820   55.7680   C 0  0  0  0  0  0  0  0  0  0  0  0
   13.6300   -4.5110   55.7850   C 0  0  0  0  0  0  0  0  0  0  0  0
   15.0040   -4.2430   55.2350   C 0  0  0  0  0  0  0  0  0  0  0  0
   15.7490   -5.5350   55.0280   C 0  0  0  0  0  0  0  0  0  0  0  0
   17.2350   -5.2590   54.8740   C 0  0  0  0  0  0  0  0  0  0  0  0
   17.8260   -5.5460   53.5010   C 0  0  0  0  0  0  0  0  0  0  0  0
   17.7980   -4.3500   52.5740   C 0  0  0  0  0  0  0  0  0  0  0  0
   11.5020   -3.2360   56.3020   C 0  0  0  0  0  0  0  0  0  0  0  0
  2  1  1  0  0  0  0
  4  2  1  0  0  0  0
  2  3  2  0  0  0  0
  5  4  1  0  0  0  0
  6  5  1  0  0  0  0
  7  6  1  0  0  0  0
  8  7  1  0  0  0  0
  9  8  1  0  0  0  0
 10  9  1  0  0  0  0
 11 10  1  0  0  0  0
 19 11  1  0  0  0  0
 13 12  1  0  0  0  0
 12 19  1  0  0  0  0
 14 13  1  0  0  0  0
 15 14  1  0  0  0  0
 16 15  1  0  0  0  0
 17 16  1  0  0  0  0
 18 17  1  0  0  0  0
M  END
>  <InstanceId>
6GF9_X90_A_201

>  <ChemCompId>
X90

>  <PdbId>
6GF9

>  <ChainId>
A

>  <ResidueNumber>
201

>  <InsertionCode>


>  <Model>
1

>  <AltIds>


>  <MissingHeavyAtoms>
0

>  <ObservedFormula>
C17 O2

>  <Name>
heptadecanoic acid

>  <SystematicName>
heptadecanoic acid

>  <Synonyms>


>  <Type>
NON-POLYMER

>  <Formula>
C17 H34 O2

>  <MolecularWeight>
270.451

>  <ModifiedDate>
2018-06-15

>  <Parent>


>  <OneLetterCode>


>  <SubcomponentList>


>  <AmbiguousFlag>
N

>  <InChI>
InChI=1S/C17H34O2/c1-2-3-4-5-6-7-8-9-10-11-12-13-14-15-16-17(18)19/h2-16H2,1H3,(H,18,19)

>  <InChIKey>
KEMQGTRYUADPNZ-UHFFFAOYSA-N

>  <SMILES>
CCCCCCCCCCCCCCCCC(=O)O

$$$$
