2BVS_2CE_H_1246
  RCSB PDB08012016433D
Coordinates from PDB:2BVS:H:1246 Model:1 without hydrogens
 37 38  0  0  0  0            999 V2000
   16.6210   -9.7900   12.1740   C 0  0  0  0  0  0  0  0  0  0  0  0
   15.7030   -9.7780   13.2410   C 0  0  0  0  0  0  0  0  0  0  0  0
   15.7260  -10.7940   14.2190   C 0  0  0  0  0  0  0  0  0  0  0  0
   16.6740  -11.8330   14.1330   C 0  0  0  0  0  0  0  0  0  0  0  0
   17.5930  -11.8410   13.0550   C 0  0  0  0  0  0  0  0  0  0  0  0
   17.5680  -10.8250   12.0790   C 0  0  0  0  0  0  0  0  0  0  0  0
   16.5840   -8.5420   10.9940  Cl 0  0  0  0  0  0  0  0  0  0  0  0
   16.6710  -13.0820   15.3710   S 0  0  0  0  0  0  0  0  0  0  0  0
   17.0080  -14.7470   14.7410   C 0  0  0  0  0  0  0  0  0  0  0  0
   15.7190  -15.4880   14.4200   C 0  0  0  0  0  0  0  0  0  0  0  0
   15.8130  -16.6290   14.0220   O 0  0  0  0  0  0  0  0  0  0  0  0
   14.4450  -14.9320   14.5500   N 0  0  0  0  0  0  0  0  0  0  0  0
   13.2030  -15.6690   14.2030   C 0  0  0  0  0  0  0  0  0  0  0  0
   12.4590  -16.0770   15.5000   C 0  0  0  0  0  0  0  0  0  0  0  0
   13.1660  -17.0480   16.4530   C 0  0  0  0  0  0  0  0  0  0  0  0
   13.5740  -16.5970   17.7320   C 0  0  0  0  0  0  0  0  0  0  0  0
   14.2310  -17.4810   18.6310   C 0  0  0  0  0  0  0  0  0  0  0  0
   14.4930  -18.8370   18.2580   C 0  0  0  0  0  0  0  0  0  0  0  0
   14.0800  -19.2740   16.9750   C 0  0  0  0  0  0  0  0  0  0  0  0
   13.4230  -18.3900   16.0790   C 0  0  0  0  0  0  0  0  0  0  0  0
   15.1560  -19.7960   19.1220   N 0  0  0  0  0  0  0  0  0  0  0  0
   15.6570  -19.6190   20.4300   C 0  0  0  0  0  0  0  0  0  0  0  0
   15.5710  -18.4810   21.0560   N 0  0  0  0  0  0  0  0  0  0  0  0
   16.2610  -20.6960   21.0660   N 0  0  0  0  0  0  0  0  0  0  0  0
   12.3400  -14.7430   13.3660   C 0  0  0  0  0  0  0  0  0  0  0  0
   12.6940  -13.5860   13.2130   O 0  0  0  0  0  0  0  0  0  0  0  0
   11.2030  -15.1990   12.7330   N 0  0  0  0  0  0  0  0  0  0  0  0
   10.3850  -14.3800   11.8430   C 0  0  0  0  0  0  0  0  0  0  0  0
    8.9150  -14.8090   11.8030   C 0  0  0  0  0  0  0  0  0  0  0  0
    8.4440  -15.2660   13.0710   O 0  0  0  0  0  0  0  0  0  0  0  0
    8.6550  -14.3170   14.1150   C 0  0  0  0  0  0  0  0  0  0  0  0
    8.2290  -14.8570   15.4900   C 0  0  0  0  0  0  0  0  0  0  0  0
    7.0880  -14.1600   15.9790   O 0  0  0  0  0  0  0  0  0  0  0  0
    7.4120  -13.3220   17.0840   C 0  0  0  0  0  0  0  0  0  0  0  0
    8.7960  -12.7250   16.9150   C 0  0  0  0  0  0  0  0  0  0  0  0
    9.3300  -12.7460   15.8240   O 0  0  0  0  0  0  0  0  0  0  0  0
    9.4690  -12.1760   17.9950   N 0  0  0  0  0  0  0  0  0  0  0  0
  1  2  2  0  0  0  0
  1  6  1  0  0  0  0
  1  7  1  0  0  0  0
  2  3  1  0  0  0  0
  3  4  2  0  0  0  0
  4  5  1  0  0  0  0
  4  8  1  0  0  0  0
  5  6  2  0  0  0  0
  8  9  1  0  0  0  0
  9 10  1  0  0  0  0
 10 11  2  0  0  0  0
 10 12  1  0  0  0  0
 12 13  1  0  0  0  0
 13 14  1  0  0  0  0
 13 25  1  0  0  0  0
 14 15  1  0  0  0  0
 15 16  2  0  0  0  0
 15 20  1  0  0  0  0
 16 17  1  0  0  0  0
 17 18  2  0  0  0  0
 18 19  1  0  0  0  0
 18 21  1  0  0  0  0
 19 20  2  0  0  0  0
 21 22  1  0  0  0  0
 22 23  2  0  0  0  0
 22 24  1  0  0  0  0
 25 26  2  0  0  0  0
 25 27  1  0  0  0  0
 27 28  1  0  0  0  0
 28 29  1  0  0  0  0
 29 30  1  0  0  0  0
 30 31  1  0  0  0  0
 31 32  1  0  0  0  0
 32 33  1  0  0  0  0
 33 34  1  0  0  0  0
 34 35  1  0  0  0  0
 35 36  2  0  0  0  0
 35 37  1  0  0  0  0
M  END
>  <InstanceId>
2BVS_2CE_H_1246

>  <ChemCompId>
2CE

>  <PdbId>
2BVS

>  <ChainId>
H

>  <ResidueNumber>
1246

>  <InsertionCode>


>  <Model>
1

>  <AltIds>


>  <MissingHeavyAtoms>
0

>  <ObservedFormula>
C24 N6 O5 S Cl

>  <Name>
N-[2-(2-CARBAMOYLMETHOXY-ETHOXY)-ETHYL]-2-[2-(4-CHLORO-PHENYLSULFANYL)-ACETYLAMINO]-3-(4-GUANIDINO-PHENYL)-PROPIONAMIDE

>  <SystematicName>
(2S)-N-[2-[2-(2-amino-2-oxo-ethoxy)ethoxy]ethyl]-3-(4-carbamimidamidophenyl)-2-[2-(4-chlorophenyl)sulfanylethanoylamino]propanamide

>  <Synonyms>


>  <Type>
NON-POLYMER

>  <Formula>
C24 H31 Cl N6 O5 S

>  <MolecularWeight>
551.058

>  <ModifiedDate>
2011-06-04

>  <Parent>


>  <OneLetterCode>


>  <SubcomponentList>


>  <AmbiguousFlag>
N

>  <InChI>
InChI=1S/C24H31ClN6O5S/c25-17-3-7-19(8-4-17)37-15-22(33)31-20(13-16-1-5-18(6-2-16)30-24(27)28)23(34)29-9-10-35-11-12-36-14-21(26)32/h1-8,20H,9-15H2,(H2,26,32)(H,29,34)(H,31,33)(H4,27,28,30)/t20-/m0/s1

>  <InChIKey>
SUVIJSGBAJVXMV-FQEVSTJZSA-N

>  <SMILES>
[H]/N=C(\N)/Nc1ccc(cc1)C[C@@H](C(=O)NCCOCCOCC(=O)N)NC(=O)CSc2ccc(cc2)Cl

$$$$
