4CJR_FYM_A_1215
  RCSB PDB08012021233D
Coordinates from PDB:4CJR:A:1215 Model:1 without hydrogens
 36 39  0  0  0  0            999 V2000
    9.4420   32.7650    3.6590   C 0  0  0  0  0  0  0  0  0  0  0  0
    9.6320   33.6940    2.6610   C 0  0  0  0  0  0  0  0  0  0  0  0
    6.8260   36.7580    0.6860   C 0  0  0  0  0  0  0  0  0  0  0  0
    7.1730   34.7590   -0.5700   C 0  0  0  0  0  0  0  0  0  0  0  0
    9.8840   31.4740    3.4790   C 0  0  0  0  0  0  0  0  0  0  0  0
    6.4700   36.0030    1.7810   C 0  0  0  0  0  0  0  0  0  0  0  0
    6.8170   33.9950    0.5240   C 0  0  0  0  0  0  0  0  0  0  0  0
   10.9900   36.0450   -4.0150   C 0  0  0  0  0  0  0  0  0  0  0  0
   13.1630   35.1090   -2.4920   C 0  0  0  0  0  0  0  0  0  0  0  0
   11.0650   36.2470   -2.6500   C 0  0  0  0  0  0  0  0  0  0  0  0
   10.7030   32.0490    1.2840   C 0  0  0  0  0  0  0  0  0  0  0  0
    7.1770   36.1390   -0.4930   C 0  0  0  0  0  0  0  0  0  0  0  0
   10.2540   33.3480    1.4760   C 0  0  0  0  0  0  0  0  0  0  0  0
   12.1270   35.7930   -1.8900   C 0  0  0  0  0  0  0  0  0  0  0  0
   12.0350   35.3610   -4.5880   C 0  0  0  0  0  0  0  0  0  0  0  0
   13.0840   34.9100   -3.8510   C 0  0  0  0  0  0  0  0  0  0  0  0
    6.4610   34.6270    1.7010   C 0  0  0  0  0  0  0  0  0  0  0  0
   10.5090   31.1270    2.2980   C 0  0  0  0  0  0  0  0  0  0  0  0
    9.9720   36.9730   -2.0010   C 0  0  0  0  0  0  0  0  0  0  0  0
   11.3710   31.6330    0.0160   C 0  0  0  0  0  0  0  0  0  0  0  0
   13.3740   34.3050   -5.8930   C 0  0  0  0  0  0  0  0  0  0  0  0
   12.4950   35.0400    1.7530   C 0  0  0  0  0  0  0  0  0  0  0  0
    5.9770   32.5440    2.5300   C 0  0  0  0  0  0  0  0  0  0  0  0
   10.9180   29.1300    3.3410   C 0  0  0  0  0  0  0  0  0  0  0  0
    7.5550   36.9800   -1.6680   C 0  0  0  0  0  0  0  0  0  0  0  0
   10.4340   34.4190    0.4460   C 0  0  0  0  0  0  0  0  0  0  0  0
   12.1660   36.0380   -0.4190   C 0  0  0  0  0  0  0  0  0  0  0  0
    8.7370   36.4730   -2.3030   N 0  0  0  0  0  0  0  0  0  0  0  0
   11.8720   34.8460    0.4180   N 0  0  0  0  0  0  0  0  0  0  0  0
   11.0800   30.4730   -0.4230   O 0  0  0  0  0  0  0  0  0  0  0  0
   10.2070   37.9250   -1.2700   O 0  0  0  0  0  0  0  0  0  0  0  0
   12.1340   32.4630   -0.5580   O 0  0  0  0  0  0  0  0  0  0  0  0
   12.1540   35.0550   -5.9220   O 0  0  0  0  0  0  0  0  0  0  0  0
   14.0140   34.2520   -4.6110   O 0  0  0  0  0  0  0  0  0  0  0  0
    6.0900   33.9300    2.8460   O 0  0  0  0  0  0  0  0  0  0  0  0
   10.9690   29.8380    2.1100   O 0  0  0  0  0  0  0  0  0  0  0  0
  1  2  1  0  0  0  0
  1  5  2  0  0  0  0
  2 13  2  0  0  0  0
  3  6  1  0  0  0  0
  3 12  2  0  0  0  0
  4  7  2  0  0  0  0
  4 12  1  0  0  0  0
  5 18  1  0  0  0  0
  6 17  2  0  0  0  0
  7 17  1  0  0  0  0
  8 10  1  0  0  0  0
  8 15  2  0  0  0  0
  9 14  1  0  0  0  0
  9 16  2  0  0  0  0
 10 14  2  0  0  0  0
 10 19  1  0  0  0  0
 11 13  1  0  0  0  0
 11 18  2  0  0  0  0
 11 20  1  0  0  0  0
 12 25  1  0  0  0  0
 13 26  1  0  0  0  0
 14 27  1  0  0  0  0
 15 16  1  0  0  0  0
 15 33  1  0  0  0  0
 16 34  1  0  0  0  0
 17 35  1  0  0  0  0
 18 36  1  0  0  0  0
 19 28  1  0  0  0  0
 19 31  2  0  0  0  0
 20 30  2  0  0  0  0
 20 32  1  0  0  0  0
 21 33  1  0  0  0  0
 21 34  1  0  0  0  0
 22 29  1  0  0  0  0
 23 35  1  0  0  0  0
 24 36  1  0  0  0  0
 25 28  1  0  0  0  0
 26 29  1  0  0  0  0
 27 29  1  0  0  0  0
M  END
>  <InstanceId>
4CJR_FYM_A_1215

>  <ChemCompId>
FYM

>  <PdbId>
4CJR

>  <ChainId>
A

>  <ResidueNumber>
1215

>  <InsertionCode>


>  <Model>
1

>  <AltIds>


>  <MissingHeavyAtoms>
0

>  <ObservedFormula>
C27 N2 O7

>  <Name>
2-methoxy-6-[[[6-[(4-methoxyphenyl)methylcarbamoyl]-1,3-benzodioxol-5-yl]methyl-methyl-amino]methyl]benzoic acid

>  <SystematicName>
2-methoxy-6-[[[6-[(4-methoxyphenyl)methylcarbamoyl]-1,3-benzodioxol-5-yl]methyl-methyl-amino]methyl]benzoic acid

>  <Synonyms>


>  <Type>
non-polymer

>  <Formula>
C27 H28 N2 O7

>  <MolecularWeight>
492.52

>  <ModifiedDate>
2014-09-05

>  <Parent>


>  <OneLetterCode>


>  <SubcomponentList>


>  <AmbiguousFlag>
N

>  <InChI>
InChI=1S/C27H28N2O7/c1-29(14-18-5-4-6-22(34-3)25(18)27(31)32)15-19-11-23-24(36-16-35-23)12-21(19)26(30)28-13-17-7-9-20(33-2)10-8-17/h4-12H,13-16H2,1-3H3,(H,28,30)(H,31,32)

>  <InChIKey>
ROSKQERDRZMWLB-UHFFFAOYSA-N

>  <SMILES>
CN(Cc1cccc(c1C(=O)O)OC)Cc2cc3c(cc2C(=O)NCc4ccc(cc4)OC)OCO3

$$$$
