4O0A_2P9_A_201
  RCSB PDB08012022413D
Coordinates from PDB:4O0A:A:201 Model:1 without hydrogens
 41 45  0  0  0  0            999 V2000
   -7.2470   10.0720   -3.1180   O 0  0  0  0  0  0  0  0  0  0  0  0
   -6.1360   10.6360   -3.2570   C 0  0  0  0  0  0  0  0  0  0  0  0
   -5.2320   10.7230   -2.0640   C 0  0  0  0  0  0  0  0  0  0  0  0
   -5.5910   10.3190   -0.8630   N 0  0  0  0  0  0  0  0  0  0  0  0
   -4.6200   10.5120   -0.0250   N 0  0  0  0  0  0  0  0  0  0  0  0
   -4.7230   10.1450    1.3390   C 0  0  0  0  0  0  0  0  0  0  0  0
   -4.2340    8.9080    1.7170   C 0  0  0  0  0  0  0  0  0  0  0  0
   -4.3090    8.5000    3.0350   C 0  0  0  0  0  0  0  0  0  0  0  0
   -3.6680    6.9200    3.3900  Cl 0  0  0  0  0  0  0  0  0  0  0  0
   -4.8880    9.3220    4.0040   C 0  0  0  0  0  0  0  0  0  0  0  0
   -4.9840    8.8360    5.6760  Cl 0  0  0  0  0  0  0  0  0  0  0  0
   -5.3840   10.5580    3.6100   C 0  0  0  0  0  0  0  0  0  0  0  0
   -5.3050   10.9700    2.2820   C 0  0  0  0  0  0  0  0  0  0  0  0
   -3.5470   11.0180   -0.6350   C 0  0  0  0  0  0  0  0  0  0  0  0
   -2.2200   11.4010   -0.0140   C 0  0  0  0  0  0  0  0  0  0  0  0
   -2.1940   11.9400    1.2580   C 0  0  0  0  0  0  0  0  0  0  0  0
   -1.0000   12.3230    1.8390   C 0  0  0  0  0  0  0  0  0  0  0  0
    0.1850   12.1850    1.1480   C 0  0  0  0  0  0  0  0  0  0  0  0
    1.4620   12.6170    1.8300   C 0  0  0  0  0  0  0  0  0  0  0  0
    2.5110   11.7420    1.4460   N 0  0  0  0  0  0  0  0  0  0  0  0
    2.9180   10.8910    2.5090   C 0  0  0  0  0  0  0  0  0  0  0  0
    3.9450    9.8470    2.0800   C 0  0  0  0  0  0  0  0  0  0  0  0
    5.0970    9.8830    2.8480   C 0  0  0  0  0  0  0  0  0  0  0  0
    6.1590    9.0310    2.6010   C 0  0  0  0  0  0  0  0  0  0  0  0
    6.0560    8.1400    1.5530   C 0  0  0  0  0  0  0  0  0  0  0  0
    7.1430    7.1750    1.2320   C 0  0  0  0  0  0  0  0  0  0  0  0
    8.3290    6.9060    1.9120   C 0  0  0  0  0  0  0  0  0  0  0  0
    8.9750    5.8790    1.1510   C 0  0  0  0  0  0  0  0  0  0  0  0
    8.0990    5.6390    0.0970   C 0  0  0  0  0  0  0  0  0  0  0  0
    8.2400    4.6660   -1.0220   C 0  0  0  0  0  0  0  0  0  0  0  0
    9.2410    3.9130   -1.0560   O 0  0  0  0  0  0  0  0  0  0  0  0
    7.3040    4.6440   -1.8520   O 0  0  0  0  0  0  0  0  0  0  0  0
    7.0520    6.4080    0.1740   O 0  0  0  0  0  0  0  0  0  0  0  0
    4.9180    8.0890    0.7770   C 0  0  0  0  0  0  0  0  0  0  0  0
    3.8520    8.9390    1.0160   C 0  0  0  0  0  0  0  0  0  0  0  0
    2.4470    8.8020   -0.0150  Cl 0  0  0  0  0  0  0  0  0  0  0  0
    1.5810   10.3430    3.5450   S 0  0  0  0  0  0  0  0  0  0  0  0
    0.1800   11.6520   -0.1410   C 0  0  0  0  0  0  0  0  0  0  0  0
   -1.0310   11.2700   -0.7200   C 0  0  0  0  0  0  0  0  0  0  0  0
   -3.9000   11.2000   -2.0030   C 0  0  0  0  0  0  0  0  0  0  0  0
   -5.7540   11.0990   -4.3570   O 0  0  0  0  0  0  0  0  0  0  0  0
 41  2  2  0  0  0  0
  2  1  1  0  0  0  0
  2  3  1  0  0  0  0
  3 40  1  0  0  0  0
  3  4  2  0  0  0  0
 40 14  2  0  0  0  0
 32 30  2  0  0  0  0
 31 30  1  0  0  0  0
 30 29  1  0  0  0  0
  4  5  1  0  0  0  0
 39 38  2  0  0  0  0
 39 15  1  0  0  0  0
 14  5  1  0  0  0  0
 14 15  1  0  0  0  0
 38 18  1  0  0  0  0
  5  6  1  0  0  0  0
 15 16  2  0  0  0  0
 36 35  1  0  0  0  0
 29 33  1  0  0  0  0
 29 28  2  0  0  0  0
 33 26  1  0  0  0  0
 34 35  2  0  0  0  0
 34 25  1  0  0  0  0
 35 22  1  0  0  0  0
 18 19  1  0  0  0  0
 18 17  2  0  0  0  0
 28 27  1  0  0  0  0
 26 25  1  0  0  0  0
 26 27  2  0  0  0  0
 16 17  1  0  0  0  0
  6  7  2  0  0  0  0
  6 13  1  0  0  0  0
 20 19  1  0  0  0  0
 20 21  1  0  0  0  0
 25 24  2  0  0  0  0
  7  8  1  0  0  0  0
 22 21  1  0  0  0  0
 22 23  2  0  0  0  0
 13 12  2  0  0  0  0
 21 37  2  0  0  0  0
 24 23  1  0  0  0  0
  8  9  1  0  0  0  0
  8 10  2  0  0  0  0
 12 10  1  0  0  0  0
 10 11  1  0  0  0  0
M  END
>  <InstanceId>
4O0A_2P9_A_201

>  <ChemCompId>
2P9

>  <PdbId>
4O0A

>  <ChainId>
A

>  <ResidueNumber>
201

>  <InsertionCode>


>  <Model>
1

>  <AltIds>


>  <MissingHeavyAtoms>
0

>  <ObservedFormula>
C29 N3 O5 S Cl3

>  <Name>
5-{4-[({[4-(5-carboxyfuran-2-yl)-2-chlorophenyl]carbonothioyl}amino)methyl]phenyl}-1-(3,4-dichlorophenyl)-1H-pyrazole-3-carboxylic acid

>  <SystematicName>
5-[4-[[[4-(5-carboxyfuran-2-yl)-2-chloranyl-phenyl]carbothioylamino]methyl]phenyl]-1-(3,4-dichlorophenyl)pyrazole-3-carboxylic acid

>  <Synonyms>


>  <Type>
NON-POLYMER

>  <Formula>
C29 H18 Cl3 N3 O5 S

>  <MolecularWeight>
626.894

>  <ModifiedDate>
2014-01-03

>  <Parent>


>  <OneLetterCode>


>  <SubcomponentList>


>  <AmbiguousFlag>
N

>  <InChI>
InChI=1S/C29H18Cl3N3O5S/c30-20-8-6-18(12-22(20)32)35-24(13-23(34-35)28(36)37)16-3-1-15(2-4-16)14-33-27(41)19-7-5-17(11-21(19)31)25-9-10-26(40-25)29(38)39/h1-13H,14H2,(H,33,41)(H,36,37)(H,38,39)

>  <InChIKey>
RSWLTGWUCSWTHA-UHFFFAOYSA-N

>  <SMILES>
c1cc(ccc1CNC(=S)c2ccc(cc2Cl)c3ccc(o3)C(=O)O)c4cc(nn4c5ccc(c(c5)Cl)Cl)C(=O)O

$$$$
