4BUQ_KGM_A_201
  RCSB PDB08012021173D
Coordinates from PDB:4BUQ:A:201 Model:1 without hydrogens
 19 19  0  0  0  0            999 V2000
   21.5880   -4.6460    5.2170   O 0  0  0  0  0  0  0  0  0  0  0  0
   21.9480   -5.2020    6.5060   C 0  0  0  0  0  0  0  0  0  0  0  0
   20.7850   -6.0600    7.0150   C 0  0  0  0  0  0  0  0  0  0  0  0
   20.1990   -5.8900   13.5660   C 0  0  0  0  0  0  0  0  0  0  0  0
   19.6130   -5.2220    7.1330   O 0  0  0  0  0  0  0  0  0  0  0  0
   20.4940   -7.1770    6.0630   C 0  0  0  0  0  0  0  0  0  0  0  0
   21.6730   -8.0430    5.9980   O 0  0  0  0  0  0  0  0  0  0  0  0
   19.3210   -7.9820    6.5990   C 0  0  0  0  0  0  0  0  0  0  0  0
   19.0330   -9.0150    5.6520   O 0  0  0  0  0  0  0  0  0  0  0  0
   18.0940   -7.0760    6.7340   C 0  0  0  0  0  0  0  0  0  0  0  0
   17.7700   -6.5580    5.4730   O 0  0  0  0  0  0  0  0  0  0  0  0
   18.4280   -5.9240    7.6330   C 0  0  0  0  0  0  0  0  0  0  0  0
   18.7600   -6.4330    8.9360   O 0  0  0  0  0  0  0  0  0  0  0  0
   19.0290   -5.4320    9.9330   C 0  0  0  0  0  0  0  0  0  0  0  0
   19.4450   -6.1850   11.2030   C 0  0  0  0  0  0  0  0  0  0  0  0
   19.7640   -5.1740   12.2920   C 0  0  0  0  0  0  0  0  0  0  0  0
   21.3020   -4.5610   17.0320   C 0  0  0  0  0  0  0  0  0  0  0  0
   20.9730   -5.5570   15.9150   C 0  0  0  0  0  0  0  0  0  0  0  0
   20.5220   -4.8420   14.6400   C 0  0  0  0  0  0  0  0  0  0  0  0
 17 18  1  0  0  0  0
 18 19  1  0  0  0  0
 19  4  1  0  0  0  0
  4 16  1  0  0  0  0
 16 15  1  0  0  0  0
 15 14  1  0  0  0  0
 14 13  1  0  0  0  0
 13 12  1  0  0  0  0
 12 10  1  0  0  0  0
 12  5  1  0  0  0  0
 10 11  1  0  0  0  0
 10  8  1  0  0  0  0
  8  9  1  0  0  0  0
  8  6  1  0  0  0  0
  6  7  1  0  0  0  0
  6  3  1  0  0  0  0
  3  5  1  0  0  0  0
  3  2  1  0  0  0  0
  2  1  1  0  0  0  0
M  END
>  <InstanceId>
4BUQ_KGM_A_201

>  <ChemCompId>
KGM

>  <PdbId>
4BUQ

>  <ChainId>
A

>  <ResidueNumber>
201

>  <InsertionCode>


>  <Model>
1

>  <AltIds>


>  <MissingHeavyAtoms>
0

>  <ObservedFormula>
C13 O6

>  <Name>
heptyl alpha-D-mannopyranoside

>  <SystematicName>
(2S,3S,4S,5S,6R)-2-heptoxy-6-(hydroxymethyl)oxane-3,4,5-triol

>  <Synonyms>
Heptyl Alpha-D-mannopyrannoside; heptyl alpha-D-mannoside; heptyl D-mannoside; heptyl mannoside

>  <Type>
D-saccharide

>  <Formula>
C13 H26 O6

>  <MolecularWeight>
278.342

>  <ModifiedDate>
2020-07-17

>  <Parent>
MAN

>  <OneLetterCode>


>  <SubcomponentList>


>  <AmbiguousFlag>
N

>  <InChI>
InChI=1S/C13H26O6/c1-2-3-4-5-6-7-18-13-12(17)11(16)10(15)9(8-14)19-13/h9-17H,2-8H2,1H3/t9-,10-,11+,12+,13+/m1/s1

>  <InChIKey>
NIDYWHLDTIVRJT-BNDIWNMDSA-N

>  <SMILES>
CCCCCCCO[C@@H]1[C@H]([C@H]([C@@H]([C@H](O1)CO)O)O)O

$$$$
