4U54_3C5_A_501
  RCSB PDB08012023273D
Coordinates from PDB:4U54:A:501 Model:1 without hydrogens
 15 16  0  0  0  0            999 V2000
   -0.1950  124.2660  -12.0830   C 0  0  0  0  0  0  0  0  0  0  0  0
   -4.3290  129.9320  -13.8540   C 0  0  0  0  0  0  0  0  0  0  0  0
   -3.6530  129.2190  -12.7730   N 0  0  0  0  0  0  0  0  0  0  0  0
   -2.3880  128.6600  -13.2370   C 0  0  0  0  0  0  0  0  0  0  0  0
   -1.7210  127.7630  -12.1890   C 0  0  0  0  0  0  0  0  0  0  0  0
   -1.2750  126.4970  -12.5660   C 0  0  0  0  0  0  0  0  0  0  0  0
   -0.6560  125.6610  -11.6460   C 0  0  0  0  0  0  0  0  0  0  0  0
   -0.4810  126.0960  -10.3340   C 0  0  0  0  0  0  0  0  0  0  0  0
   -0.9230  127.3610   -9.9510   C 0  0  0  0  0  0  0  0  0  0  0  0
   -1.5420  128.2010  -10.8750   C 0  0  0  0  0  0  0  0  0  0  0  0
    0.9890  123.7020  -11.6120   C 0  0  0  0  0  0  0  0  0  0  0  0
    1.3690  122.4870  -11.9940   N 0  0  0  0  0  0  0  0  0  0  0  0
    0.6420  121.7680  -12.8320   C 0  0  0  0  0  0  0  0  0  0  0  0
   -0.5530  122.2560  -13.3410   C 0  0  0  0  0  0  0  0  0  0  0  0
   -0.9860  123.5260  -12.9630   C 0  0  0  0  0  0  0  0  0  0  0  0
  2  3  1  0  0  0  0
 14 15  1  0  0  0  0
 14 13  2  0  0  0  0
  4  3  1  0  0  0  0
  4  5  1  0  0  0  0
 15  1  2  0  0  0  0
 13 12  1  0  0  0  0
  6  5  1  0  0  0  0
  6  7  2  0  0  0  0
  5 10  2  0  0  0  0
  1  7  1  0  0  0  0
  1 11  1  0  0  0  0
 12 11  2  0  0  0  0
  7  8  1  0  0  0  0
 10  9  1  0  0  0  0
  8  9  2  0  0  0  0
M  END
>  <InstanceId>
4U54_3C5_A_501

>  <ChemCompId>
3C5

>  <PdbId>
4U54

>  <ChainId>
A

>  <ResidueNumber>
501

>  <InsertionCode>


>  <Model>
1

>  <AltIds>


>  <MissingHeavyAtoms>
0

>  <ObservedFormula>
C13 N2

>  <Name>
N-methyl-1-[3-(pyridin-3-yl)phenyl]methanamine

>  <SystematicName>
N-methyl-1-(3-pyridin-3-ylphenyl)methanamine

>  <Synonyms>


>  <Type>
NON-POLYMER

>  <Formula>
C13 H14 N2

>  <MolecularWeight>
198.264

>  <ModifiedDate>
2015-05-01

>  <Parent>


>  <OneLetterCode>


>  <SubcomponentList>


>  <AmbiguousFlag>
N

>  <InChI>
InChI=1S/C13H14N2/c1-14-9-11-4-2-5-12(8-11)13-6-3-7-15-10-13/h2-8,10,14H,9H2,1H3

>  <InChIKey>
LZJRRTLTBULOHU-UHFFFAOYSA-N

>  <SMILES>
CNCc1cccc(c1)c2cccnc2

$$$$
