1QL9_ZEN_A_999
  RCSB PDB08012015483D
Coordinates from PDB:1QL9:A:999 Model:1 without hydrogens
 34 38  0  0  0  0            999 V2000
   18.2230   50.5650   59.9120   N 0  0  0  0  0  0  0  0  0  0  0  0
   17.9420   51.0010   61.1640   C 0  0  0  0  0  0  0  0  0  0  0  0
   16.7870   50.5590   61.8240   C 0  0  0  0  0  0  0  0  0  0  0  0
   16.2510   49.2190   59.8740   C 0  0  0  0  0  0  0  0  0  0  0  0
   17.4170   49.6950   59.2640   C 0  0  0  0  0  0  0  0  0  0  0  0
   15.9280   49.6580   61.1670   C 0  0  0  0  0  0  0  0  0  0  0  0
   14.7500   49.1820   61.8130   N 0  0  0  0  0  0  0  0  0  0  0  0
   14.4290   49.5320   63.2230   C 0  0  0  0  0  0  0  0  0  0  0  0
   13.0270   50.2030   63.3210   C 0  0  0  0  0  0  0  0  0  0  0  0
   12.3770   49.1220   61.1300   C 0  0  0  0  0  0  0  0  0  0  0  0
   13.7350   48.3930   61.0840   C 0  0  0  0  0  0  0  0  0  0  0  0
   11.9290   49.3530   62.6090   C 0  0  0  0  0  0  0  0  0  0  0  0
   10.5660   50.0330   62.6130   C 0  0  0  0  0  0  0  0  0  0  0  0
   10.5770   51.2380   62.8600   O 0  0  0  0  0  0  0  0  0  0  0  0
    9.4420   49.4100   62.3370   N 0  0  0  0  0  0  0  0  0  0  0  0
    9.3660   47.9510   62.0360   C 0  0  0  0  0  0  0  0  0  0  0  0
    8.5640   47.7320   60.7300   C 0  0  0  0  0  0  0  0  0  0  0  0
    7.4540   49.9040   60.9880   C 0  0  0  0  0  0  0  0  0  0  0  0
    8.1660   50.1570   62.3430   C 0  0  0  0  0  0  0  0  0  0  0  0
    7.2720   48.4430   60.8410   N 0  0  0  0  0  0  0  0  0  0  0  0
    6.2200   48.0300   59.6480   S 0  0  0  0  0  0  0  0  0  0  0  0
    5.0680   48.9160   59.7320   O 0  0  0  0  0  0  0  0  0  0  0  0
    5.9520   46.6270   59.8260   O 0  0  0  0  0  0  0  0  0  0  0  0
    6.9580   48.2550   58.0380   C 0  0  0  0  0  0  0  0  0  0  0  0
    6.9530   49.5250   57.4270   C 0  0  0  0  0  0  0  0  0  0  0  0
    7.5660   47.1690   57.3800   C 0  0  0  0  0  0  0  0  0  0  0  0
    8.1500   47.3420   56.1160   C 0  0  0  0  0  0  0  0  0  0  0  0
    7.5350   49.7090   56.1580   C 0  0  0  0  0  0  0  0  0  0  0  0
    8.1350   48.6060   55.5000   C 0  0  0  0  0  0  0  0  0  0  0  0
    8.7140   48.7820   54.2470   C 0  0  0  0  0  0  0  0  0  0  0  0
    8.1040   51.1390   54.2760   C 0  0  0  0  0  0  0  0  0  0  0  0
    7.5190   50.9720   55.5360   C 0  0  0  0  0  0  0  0  0  0  0  0
    8.7040   50.0390   53.6350   C 0  0  0  0  0  0  0  0  0  0  0  0
    9.4500   50.2280   52.0690  Cl 0  0  0  0  0  0  0  0  0  0  0  0
  1  2  2  0  0  0  0
  1  5  1  0  0  0  0
  2  3  1  0  0  0  0
  3  6  2  0  0  0  0
  4  5  2  0  0  0  0
  4  6  1  0  0  0  0
  6  7  1  0  0  0  0
  7  8  1  0  0  0  0
  7 11  1  0  0  0  0
  8  9  1  0  0  0  0
  9 12  1  0  0  0  0
 10 11  1  0  0  0  0
 10 12  1  0  0  0  0
 12 13  1  0  0  0  0
 13 14  2  0  0  0  0
 13 15  1  0  0  0  0
 15 16  1  0  0  0  0
 15 19  1  0  0  0  0
 16 17  1  0  0  0  0
 17 20  1  0  0  0  0
 18 19  1  0  0  0  0
 18 20  1  0  0  0  0
 20 21  1  0  0  0  0
 21 22  2  0  0  0  0
 21 23  2  0  0  0  0
 21 24  1  0  0  0  0
 24 25  2  0  0  0  0
 24 26  1  0  0  0  0
 25 28  1  0  0  0  0
 26 27  2  0  0  0  0
 27 29  1  0  0  0  0
 28 29  2  0  0  0  0
 28 32  1  0  0  0  0
 29 30  1  0  0  0  0
 30 33  2  0  0  0  0
 31 32  2  0  0  0  0
 31 33  1  0  0  0  0
 33 34  1  0  0  0  0
M  END
>  <InstanceId>
1QL9_ZEN_A_999

>  <ChemCompId>
ZEN

>  <PdbId>
1QL9

>  <ChainId>
A

>  <ResidueNumber>
999

>  <InsertionCode>


>  <Model>
1

>  <AltIds>


>  <MissingHeavyAtoms>
0

>  <ObservedFormula>
C25 N4 O3 S Cl

>  <Name>
[4-(6-CHLORO-NAPHTHALENE-2-SULFONYL)-PIPERAZIN-1-YL]- (3,4,5,6-TETRAHYDRO-2H-[1,4']BIPYRIDINYL-4-YL)- METHANONE

>  <SystematicName>
[4-(6-chloronaphthalen-2-yl)sulfonylpiperazin-1-yl]-(1-pyridin-4-ylpiperidin-4-yl)methanone

>  <Synonyms>


>  <Type>
NON-POLYMER

>  <Formula>
C25 H27 Cl N4 O3 S

>  <MolecularWeight>
499.025

>  <ModifiedDate>
2011-06-04

>  <Parent>


>  <OneLetterCode>


>  <SubcomponentList>


>  <AmbiguousFlag>
N

>  <InChI>
InChI=1S/C25H27ClN4O3S/c26-22-3-1-21-18-24(4-2-20(21)17-22)34(32,33)30-15-13-29(14-16-30)25(31)19-7-11-28(12-8-19)23-5-9-27-10-6-23/h1-6,9-10,17-19H,7-8,11-16H2

>  <InChIKey>
ZLAKCKVFSRSENR-UHFFFAOYSA-N

>  <SMILES>
c1cc(cc2c1cc(cc2)Cl)S(=O)(=O)N3CCN(CC3)C(=O)C4CCN(CC4)c5ccncc5

$$$$
