1M0Q_EPC_A_435
  RCSB PDB08012015253D
Coordinates from PDB:1M0Q:A:435 Model:1 without hydrogens
 22 22  0  0  0  0            999 V2000
   15.8650   51.0490   19.8310   C 0  0  0  0  0  0  0  0  0  0  0  0
   16.0090   51.2470   18.4280   N 0  0  0  0  0  0  0  0  0  0  0  0
   17.1620   52.5670   13.6290   N 0  0  0  0  0  0  0  0  0  0  0  0
   16.0370   52.8770   14.4570   C 0  0  0  0  0  0  0  0  0  0  0  0
   14.9410   53.8310   13.9430   C 0  0  0  0  0  0  0  0  0  0  0  0
   15.9660   52.3420   15.7510   C 0  0  0  0  0  0  0  0  0  0  0  0
   14.8760   52.6630   16.5590   O 0  0  0  0  0  0  0  0  0  0  0  0
   17.0930   51.4470   16.2780   C 0  0  0  0  0  0  0  0  0  0  0  0
   17.0100   50.9300   17.7030   C 0  0  0  0  0  0  0  0  0  0  0  0
   18.2030   51.1800   15.4230   C 0  0  0  0  0  0  0  0  0  0  0  0
   18.1880   51.7820   14.0290   C 0  0  0  0  0  0  0  0  0  0  0  0
   19.4040   50.3410   15.8680   C 0  0  0  0  0  0  0  0  0  0  0  0
   18.9320   49.0270   16.0370   O 0  0  0  0  0  0  0  0  0  0  0  0
   20.0160   48.0930   16.6400   P 0  0  0  0  0  0  0  0  0  0  0  0
   19.3910   46.7170   16.8530   O 0  0  0  0  0  0  0  0  0  0  0  0
   21.2570   47.9760   15.8240   O 0  0  0  0  0  0  0  0  0  0  0  0
   20.4740   48.7930   17.9260   O 0  0  0  0  0  0  0  0  0  0  0  0
   14.2540   51.0870   20.2920   P 0  0  0  0  0  0  0  0  0  0  0  0
   13.5500   52.3430   19.6510   O 0  0  0  0  0  0  0  0  0  0  0  0
   13.6400   49.7540   19.8510   O 0  0  0  0  0  0  0  0  0  0  0  0
   14.1400   51.0740   21.8940   O 0  0  0  0  0  0  0  0  0  0  0  0
   16.6140   49.7340   20.3460   C 0  0  0  0  0  0  0  0  0  0  0  0
  1  2  1  0  0  0  0
  1 18  1  0  0  0  0
  1 22  1  0  0  0  0
  2  9  2  0  0  0  0
  3  4  2  0  0  0  0
  3 11  1  0  0  0  0
  4  5  1  0  0  0  0
  4  6  1  0  0  0  0
  6  7  1  0  0  0  0
  6  8  2  0  0  0  0
  8  9  1  0  0  0  0
  8 10  1  0  0  0  0
 10 11  2  0  0  0  0
 10 12  1  0  0  0  0
 12 13  1  0  0  0  0
 13 14  1  0  0  0  0
 14 15  2  0  0  0  0
 14 16  1  0  0  0  0
 14 17  1  0  0  0  0
 18 19  2  0  0  0  0
 18 20  1  0  0  0  0
 18 21  1  0  0  0  0
M  END
>  <InstanceId>
1M0Q_EPC_A_435

>  <ChemCompId>
EPC

>  <PdbId>
1M0Q

>  <ChainId>
A

>  <ResidueNumber>
435

>  <InsertionCode>


>  <Model>
1

>  <AltIds>


>  <MissingHeavyAtoms>
0

>  <ObservedFormula>
C10 N2 O8 P2

>  <Name>
(1S)-1-[((1E)-{3-HYDROXY-2-METHYL-5-[(PHOSPHONOOXY)METHYL]PYRIDIN-4-YL}METHYLENE)AMINO]ETHYLPHOSPHONIC ACID

>  <SystematicName>
[(1S)-1-[[3-hydroxy-2-methyl-5-(phosphonooxymethyl)pyridin-4-yl]methylideneamino]ethyl]phosphonic acid

>  <Synonyms>


>  <Type>
NON-POLYMER

>  <Formula>
C10 H16 N2 O8 P2

>  <MolecularWeight>
354.19

>  <ModifiedDate>
2011-06-04

>  <Parent>


>  <OneLetterCode>


>  <SubcomponentList>


>  <AmbiguousFlag>
N

>  <InChI>
InChI=1S/C10H16N2O8P2/c1-6-10(13)9(4-12-7(2)21(14,15)16)8(3-11-6)5-20-22(17,18)19/h3-4,7,13H,5H2,1-2H3,(H2,14,15,16)(H2,17,18,19)/b12-4+/t7-/m0/s1

>  <InChIKey>
WCUQNAKNQCJAKL-MNOXCQKJSA-N

>  <SMILES>
Cc1c(c(c(cn1)COP(=O)(O)O)\C=N\[C@H](C)P(=O)(O)O)O

$$$$
