4JYT_N4A_A_900
  RCSB PDB08012022103D
Coordinates from PDB:4JYT:A:900 Model:1 without hydrogens
 40 44  0  0  0  0            999 V2000
   17.9750   64.1320   19.8210   O 0  0  0  0  0  0  0  0  0  0  0  0
   16.9890   64.5920   20.7760   S 0  0  0  0  0  0  0  0  0  0  0  0
   17.7560   65.4220   21.6500   O 0  0  0  0  0  0  0  0  0  0  0  0
   15.9130   65.6130   20.1730   C 0  0  0  0  0  0  0  0  0  0  0  0
   15.3370   66.6580   20.9110   C 0  0  0  0  0  0  0  0  0  0  0  0
   14.4460   67.5480   20.3020   C 0  0  0  0  0  0  0  0  0  0  0  0
   14.1590   67.4030   18.9540   C 0  0  0  0  0  0  0  0  0  0  0  0
   13.2790   68.2800   18.3140   C 0  0  0  0  0  0  0  0  0  0  0  0
   13.0130   68.1180   16.9610   C 0  0  0  0  0  0  0  0  0  0  0  0
   13.6250   67.1060   16.2490   C 0  0  0  0  0  0  0  0  0  0  0  0
   14.4990   66.2360   16.8880   C 0  0  0  0  0  0  0  0  0  0  0  0
   14.7650   66.3850   18.2290   C 0  0  0  0  0  0  0  0  0  0  0  0
   15.6510   65.5050   18.8210   C 0  0  0  0  0  0  0  0  0  0  0  0
   16.8360   63.5170   21.9050   N 0  0  0  0  0  0  0  0  0  0  0  0
   16.1920   63.5190   23.0810   C 0  0  0  0  0  0  0  0  0  0  0  0
   16.5500   62.4110   23.7970   C 0  0  0  0  0  0  0  0  0  0  0  0
   17.4980   61.6340   23.1850   O 0  0  0  0  0  0  0  0  0  0  0  0
   18.1650   60.6890   23.9030   C 0  0  0  0  0  0  0  0  0  0  0  0
   18.2210   59.3800   23.4280   C 0  0  0  0  0  0  0  0  0  0  0  0
   18.8830   58.4220   24.1810   C 0  0  0  0  0  0  0  0  0  0  0  0
   19.4700   58.7890   25.3990   C 0  0  0  0  0  0  0  0  0  0  0  0
   20.1780   57.7350   26.1680   C 0  0  0  0  0  0  0  0  0  0  0  0
   20.7980   57.9980   27.3080   N 0  0  0  0  0  0  0  0  0  0  0  0
   20.1600   56.5760   25.6990   N 0  0  0  0  0  0  0  0  0  0  0  0
   19.4080   60.1000   25.8700   C 0  0  0  0  0  0  0  0  0  0  0  0
   18.7480   61.0540   25.1210   C 0  0  0  0  0  0  0  0  0  0  0  0
   15.2360   64.3980   23.5770   C 0  0  0  0  0  0  0  0  0  0  0  0
   14.6670   64.1080   24.8110   C 0  0  0  0  0  0  0  0  0  0  0  0
   15.0500   62.9610   25.5280   C 0  0  0  0  0  0  0  0  0  0  0  0
   15.9900   62.1280   25.0030   N 0  0  0  0  0  0  0  0  0  0  0  0
   14.4910   62.6750   26.7650   O 0  0  0  0  0  0  0  0  0  0  0  0
   14.7260   63.5160   27.8370   C 0  0  0  0  0  0  0  0  0  0  0  0
   14.8850   63.0280   29.1450   C 0  0  0  0  0  0  0  0  0  0  0  0
   15.1140   63.9290   30.2110   C 0  0  0  0  0  0  0  0  0  0  0  0
   15.1780   65.3130   29.9790   C 0  0  0  0  0  0  0  0  0  0  0  0
   15.4000   66.3540   31.0450   C 0  0  0  0  0  0  0  0  0  0  0  0
   15.9600   67.4500   30.7270   N 0  0  0  0  0  0  0  0  0  0  0  0
   14.9820   66.1680   32.3020   N 0  0  0  0  0  0  0  0  0  0  0  0
   15.0110   65.7820   28.6870   C 0  0  0  0  0  0  0  0  0  0  0  0
   14.7930   64.9030   27.6390   C 0  0  0  0  0  0  0  0  0  0  0  0
 10 11  2  0  0  0  0
 10  9  1  0  0  0  0
 11 12  1  0  0  0  0
  9  8  2  0  0  0  0
 12 13  2  0  0  0  0
 12  7  1  0  0  0  0
  8  7  1  0  0  0  0
 13  4  1  0  0  0  0
  7  6  2  0  0  0  0
  1  2  2  0  0  0  0
  4  2  1  0  0  0  0
  4  5  2  0  0  0  0
  6  5  1  0  0  0  0
  2  3  2  0  0  0  0
  2 14  1  0  0  0  0
 14 15  1  0  0  0  0
 15 27  2  0  0  0  0
 15 16  1  0  0  0  0
 17 16  1  0  0  0  0
 17 18  1  0  0  0  0
 19 18  2  0  0  0  0
 19 20  1  0  0  0  0
 27 28  1  0  0  0  0
 16 30  2  0  0  0  0
 18 26  1  0  0  0  0
 20 21  2  0  0  0  0
 28 29  2  0  0  0  0
 30 29  1  0  0  0  0
 26 25  2  0  0  0  0
 21 25  1  0  0  0  0
 21 22  1  0  0  0  0
 29 31  1  0  0  0  0
 24 22  2  0  0  0  0
 22 23  1  0  0  0  0
 31 32  1  0  0  0  0
 40 32  2  0  0  0  0
 40 39  1  0  0  0  0
 32 33  1  0  0  0  0
 39 35  2  0  0  0  0
 33 34  2  0  0  0  0
 35 34  1  0  0  0  0
 35 36  1  0  0  0  0
 37 36  2  0  0  0  0
 36 38  1  0  0  0  0
M  END
>  <InstanceId>
4JYT_N4A_A_900

>  <ChemCompId>
N4A

>  <PdbId>
4JYT

>  <ChainId>
A

>  <ResidueNumber>
900

>  <InsertionCode>


>  <Model>
1

>  <AltIds>


>  <MissingHeavyAtoms>
0

>  <ObservedFormula>
C29 N6 O4 S

>  <Name>
4,4'-[{3-[(naphthalen-2-ylsulfonyl)amino]pyridine-2,6-diyl}bis(oxy)]dibenzenecarboximidamide

>  <SystematicName>
4-[6-(4-carbamimidoylphenoxy)-5-(naphthalen-2-ylsulfonylamino)pyridin-2-yl]oxybenzenecarboximidamide

>  <Synonyms>


>  <Type>
NON-POLYMER

>  <Formula>
C29 H24 N6 O4 S

>  <MolecularWeight>
552.604

>  <ModifiedDate>
2014-03-14

>  <Parent>


>  <OneLetterCode>


>  <SubcomponentList>


>  <AmbiguousFlag>
N

>  <InChI>
InChI=1S/C29H24N6O4S/c30-27(31)19-5-10-22(11-6-19)38-26-16-15-25(29(34-26)39-23-12-7-20(8-13-23)28(32)33)35-40(36,37)24-14-9-18-3-1-2-4-21(18)17-24/h1-17,35H,(H3,30,31)(H3,32,33)

>  <InChIKey>
YVYNZHGMLLXWDD-UHFFFAOYSA-N

>  <SMILES>
[H]/N=C(\c1ccc(cc1)Oc2ccc(c(n2)Oc3ccc(cc3)/C(=N\[H])/N)NS(=O)(=O)c4ccc5ccccc5c4)/N

$$$$
