3B7J_JUG_B_163
  RCSB PDB08012018373D
Coordinates from PDB:3B7J:B:163 Model:1 without hydrogens
 13 14  0  0  0  0            999 V2000
   21.0810   12.7820  -12.5760   O 0  0  0  0  0  0  0  0  0  0  0  0
   20.5930   13.8740  -12.2870   C 0  0  0  0  0  0  0  0  0  0  0  0
   21.4160   14.9780  -12.0960   C 0  0  0  0  0  0  0  0  0  0  0  0
   20.8530   16.2130  -11.7880   C 0  0  0  0  0  0  0  0  0  0  0  0
   19.4740   16.3380  -11.6720   C 0  0  0  0  0  0  0  0  0  0  0  0
   18.9820   17.4340  -11.3980   O 0  0  0  0  0  0  0  0  0  0  0  0
   18.6500   15.2320  -11.8590   C 0  0  0  0  0  0  0  0  0  0  0  0
   19.2140   13.9990  -12.1660   C 0  0  0  0  0  0  0  0  0  0  0  0
   18.4020   12.8800  -12.3250   C 0  0  0  0  0  0  0  0  0  0  0  0
   17.0240   12.9940  -12.1750   C 0  0  0  0  0  0  0  0  0  0  0  0
   16.4600   14.2270  -11.8680   C 0  0  0  0  0  0  0  0  0  0  0  0
   17.2710   15.3470  -11.7120   C 0  0  0  0  0  0  0  0  0  0  0  0
   16.7080   16.5520  -11.4290   O 0  0  0  0  0  0  0  0  0  0  0  0
  1  2  2  0  0  0  0
  9 10  2  0  0  0  0
  9  8  1  0  0  0  0
  2  8  1  0  0  0  0
  2  3  1  0  0  0  0
 10 11  1  0  0  0  0
  8  7  2  0  0  0  0
  3  4  2  0  0  0  0
 11 12  2  0  0  0  0
  7 12  1  0  0  0  0
  7  5  1  0  0  0  0
  4  5  1  0  0  0  0
 12 13  1  0  0  0  0
  5  6  2  0  0  0  0
M  END
>  <InstanceId>
3B7J_JUG_B_163

>  <ChemCompId>
JUG

>  <PdbId>
3B7J

>  <ChainId>
B

>  <ResidueNumber>
163

>  <InsertionCode>


>  <Model>
1

>  <AltIds>


>  <MissingHeavyAtoms>
0

>  <ObservedFormula>
C10 O3

>  <Name>
5-hydroxynaphthalene-1,4-dione

>  <SystematicName>
5-hydroxynaphthalene-1,4-dione

>  <Synonyms>
Juglone

>  <Type>
NON-POLYMER

>  <Formula>
C10 H6 O3

>  <MolecularWeight>
174.153

>  <ModifiedDate>
2020-06-17

>  <Parent>


>  <OneLetterCode>


>  <SubcomponentList>


>  <AmbiguousFlag>
N

>  <InChI>
InChI=1S/C10H6O3/c11-7-4-5-9(13)10-6(7)2-1-3-8(10)12/h1-5,12H

>  <InChIKey>
KQPYUDDGWXQXHS-UHFFFAOYSA-N

>  <SMILES>
c1cc2c(c(c1)O)C(=O)C=CC2=O

$$$$
