2I6B_89I_A_500
  RCSB PDB08012017113D
Coordinates from PDB:2I6B:A:500 Model:1 without hydrogens
 30 33  0  0  0  0            999 V2000
    5.4310   -2.7960   30.0430   C 0  0  0  0  0  0  0  0  0  0  0  0
    4.4190   -3.0710   29.2520   N 0  0  0  0  0  0  0  0  0  0  0  0
    4.7550   -3.0830   27.9580   C 0  0  0  0  0  0  0  0  0  0  0  0
    5.9930   -2.8350   27.4290   C 0  0  0  0  0  0  0  0  0  0  0  0
    6.9530   -2.5590   28.3860   C 0  0  0  0  0  0  0  0  0  0  0  0
    6.6810   -2.5210   29.6860   N 0  0  0  0  0  0  0  0  0  0  0  0
    6.2730   -2.9550   26.0070   C 0  0  0  0  0  0  0  0  0  0  0  0
    6.2180   -4.2190   25.5030   C 0  0  0  0  0  0  0  0  0  0  0  0
    6.4990   -4.4980   24.1820   C 0  0  0  0  0  0  0  0  0  0  0  0
    6.8320   -3.5190   23.2900   C 0  0  0  0  0  0  0  0  0  0  0  0
    6.8550   -2.2340   23.7990   C 0  0  0  0  0  0  0  0  0  0  0  0
    6.5930   -1.9570   25.1290   C 0  0  0  0  0  0  0  0  0  0  0  0
    0.7700   -3.2230   25.0930   C 0  0  0  0  0  0  0  0  0  0  0  0
   -0.0470   -3.0390   24.0520   N 0  0  0  0  0  0  0  0  0  0  0  0
    0.5830   -2.9290   22.8590   C 0  0  0  0  0  0  0  0  0  0  0  0
    1.9640   -2.9820   22.7140   C 0  0  0  0  0  0  0  0  0  0  0  0
    2.7630   -3.1410   23.8310   C 0  0  0  0  0  0  0  0  0  0  0  0
    2.1300   -3.2900   25.0350   C 0  0  0  0  0  0  0  0  0  0  0  0
    0.6130   -2.5050   20.4470   C 0  0  0  0  0  0  0  0  0  0  0  0
   -0.2360   -2.9250   19.2490   C 0  0  0  0  0  0  0  0  0  0  0  0
   -1.5580   -2.4180   19.4650   O 0  0  0  0  0  0  0  0  0  0  0  0
   -2.1700   -3.0110   20.5860   C 0  0  0  0  0  0  0  0  0  0  0  0
   -1.5180   -2.4170   21.8120   C 0  0  0  0  0  0  0  0  0  0  0  0
   -0.1540   -2.7770   21.6690   N 0  0  0  0  0  0  0  0  0  0  0  0
    3.7200   -3.3910   27.0540   C 0  0  0  0  0  0  0  0  0  0  0  0
    2.8540   -3.4130   26.1980   C 0  0  0  0  0  0  0  0  0  0  0  0
    7.1100   -3.9290   21.9500   N 0  0  0  0  0  0  0  0  0  0  0  0
    7.6530   -2.9050   21.0350   C 0  0  0  0  0  0  0  0  0  0  0  0
    8.0330   -5.0450   22.1150   C 0  0  0  0  0  0  0  0  0  0  0  0
    8.2440   -2.2920   27.9870   N 0  0  0  0  0  0  0  0  0  0  0  0
  1  2  2  0  0  0  0
  1  6  1  0  0  0  0
  2  3  1  0  0  0  0
  3 25  1  0  0  0  0
  3  4  2  0  0  0  0
  4  7  1  0  0  0  0
  4  5  1  0  0  0  0
  5 30  1  0  0  0  0
  5  6  2  0  0  0  0
  7 12  2  0  0  0  0
  7  8  1  0  0  0  0
  8  9  2  0  0  0  0
  9 10  1  0  0  0  0
 10 27  1  0  0  0  0
 10 11  2  0  0  0  0
 11 12  1  0  0  0  0
 13 14  2  0  0  0  0
 13 18  1  0  0  0  0
 14 15  1  0  0  0  0
 15 24  1  0  0  0  0
 15 16  2  0  0  0  0
 16 17  1  0  0  0  0
 17 18  2  0  0  0  0
 18 26  1  0  0  0  0
 19 20  1  0  0  0  0
 19 24  1  0  0  0  0
 20 21  1  0  0  0  0
 21 22  1  0  0  0  0
 22 23  1  0  0  0  0
 23 24  1  0  0  0  0
 25 26  3  0  0  0  0
 27 28  1  0  0  0  0
 27 29  1  0  0  0  0
M  END
>  <InstanceId>
2I6B_89I_A_500

>  <ChemCompId>
89I

>  <PdbId>
2I6B

>  <ChainId>
A

>  <ResidueNumber>
500

>  <InsertionCode>


>  <Model>
1

>  <AltIds>


>  <MissingHeavyAtoms>
0

>  <ObservedFormula>
C23 N6 O

>  <Name>
5-[4-(DIMETHYLAMINO)PHENYL]-6-[(6-MORPHOLIN-4-YLPYRIDIN-3-YL)ETHYNYL]PYRIMIDIN-4-AMINE

>  <SystematicName>
5-(4-dimethylaminophenyl)-6-[2-(6-morpholin-4-ylpyridin-3-yl)ethynyl]pyrimidin-4-amine

>  <Synonyms>


>  <Type>
NON-POLYMER

>  <Formula>
C23 H24 N6 O

>  <MolecularWeight>
400.476

>  <ModifiedDate>
2011-06-04

>  <Parent>


>  <OneLetterCode>


>  <SubcomponentList>


>  <AmbiguousFlag>


>  <InChI>
InChI=1S/C23H24N6O/c1-28(2)19-7-5-18(6-8-19)22-20(26-16-27-23(22)24)9-3-17-4-10-21(25-15-17)29-11-13-30-14-12-29/h4-8,10,15-16H,11-14H2,1-2H3,(H2,24,26,27)

>  <InChIKey>
AINVOEOJEKKMKB-UHFFFAOYSA-N

>  <SMILES>
CN(C)c1ccc(cc1)c2c(ncnc2N)C#Cc3ccc(nc3)N4CCOCC4

$$$$
