3SM2_478_A_126
  RCSB PDB08012020283D
Coordinates from PDB:3SM2:A:126 Model:1 without hydrogens
 35 37  0  0  0  0            999 V2000
   -2.6620    1.3630   16.0670   C 0  0  0  0  0  0  0  0  0  0  0  0
   -4.6390    1.2380   14.7350   C 0  0  0  0  0  0  0  0  0  0  0  0
   -2.9240    2.7800   12.6580   C 0  0  0  0  0  0  0  0  0  0  0  0
   -3.3930    2.0530   14.9290   C 0  0  0  0  0  0  0  0  0  0  0  0
   -2.4950    3.1570   10.2390   C 0  0  0  0  0  0  0  0  0  0  0  0
   -3.2700    2.2460    9.2490   C 0  0  0  0  0  0  0  0  0  0  0  0
   -1.1280    3.7010    9.7720   C 0  0  0  0  0  0  0  0  0  0  0  0
   -0.4530    4.4740   10.8970   C 0  0  0  0  0  0  0  0  0  0  0  0
    0.6890    3.9330   11.5090   C 0  0  0  0  0  0  0  0  0  0  0  0
   -0.9390    5.7200   11.3510   C 0  0  0  0  0  0  0  0  0  0  0  0
    1.3410    4.5870   12.5630   C 0  0  0  0  0  0  0  0  0  0  0  0
   -0.2850    6.3630   12.4130   C 0  0  0  0  0  0  0  0  0  0  0  0
    0.8290    5.7990   13.0210   C 0  0  0  0  0  0  0  0  0  0  0  0
   -3.7390    2.9320    7.9510   C 0  0  0  0  0  0  0  0  0  0  0  0
   -6.1960    3.2670    7.7960   C 0  0  0  0  0  0  0  0  0  0  0  0
   -6.8620    2.3120    8.8180   C 0  0  0  0  0  0  0  0  0  0  0  0
   -4.6780    5.8180    6.4790   C 0  0  0  0  0  0  0  0  0  0  0  0
   -3.5070    5.9290    5.7220   C 0  0  0  0  0  0  0  0  0  0  0  0
   -3.5800    6.3140    4.3760   C 0  0  0  0  0  0  0  0  0  0  0  0
   -4.8250    6.5590    3.7970   C 0  0  0  0  0  0  0  0  0  0  0  0
   -5.9830    6.4460    4.5520   C 0  0  0  0  0  0  0  0  0  0  0  0
   -5.9140    6.0730    5.8960   C 0  0  0  0  0  0  0  0  0  0  0  0
   -7.0530    2.9420   10.1890   C 0  0  0  0  0  0  0  0  0  0  0  0
   -8.2310    1.8280    8.3490   C 0  0  0  0  0  0  0  0  0  0  0  0
   -4.4800    0.0600   15.6950   C 0  0  0  0  0  0  0  0  0  0  0  0
   -2.2760    2.4850   11.5190   N 0  0  0  0  0  0  0  0  0  0  0  0
   -4.8990    3.7890    8.2890   N 0  0  0  0  0  0  0  0  0  0  0  0
   -4.9270    6.9220    2.4880   N 0  0  0  0  0  0  0  0  0  0  0  0
   -2.5610    1.9330   13.7820   O 0  0  0  0  0  0  0  0  0  0  0  0
   -3.7670    3.6550   12.7940   O 0  0  0  0  0  0  0  0  0  0  0  0
   -2.5190    1.0630    8.9000   O 0  0  0  0  0  0  0  0  0  0  0  0
   -3.2230    5.6300    8.4100   O 0  0  0  0  0  0  0  0  0  0  0  0
   -5.5280    6.0800    8.8380   O 0  0  0  0  0  0  0  0  0  0  0  0
   -3.0950    0.0100   16.0000   O 0  0  0  0  0  0  0  0  0  0  0  0
   -4.5770    5.3690    8.0220   S 0  0  0  0  0  0  0  0  0  0  0  0
  1  4  1  0  0  0  0
  1 34  1  0  0  0  0
  2  4  1  0  0  0  0
  2 25  1  0  0  0  0
  3 26  1  0  0  0  0
  3 29  1  0  0  0  0
  3 30  2  0  0  0  0
  4 29  1  0  0  0  0
  5  6  1  0  0  0  0
  5  7  1  0  0  0  0
  5 26  1  0  0  0  0
  6 14  1  0  0  0  0
  6 31  1  0  0  0  0
  7  8  1  0  0  0  0
  8  9  2  0  0  0  0
  8 10  1  0  0  0  0
  9 11  1  0  0  0  0
 10 12  2  0  0  0  0
 11 13  2  0  0  0  0
 12 13  1  0  0  0  0
 14 27  1  0  0  0  0
 15 16  1  0  0  0  0
 15 27  1  0  0  0  0
 16 23  1  0  0  0  0
 16 24  1  0  0  0  0
 17 18  2  0  0  0  0
 17 22  1  0  0  0  0
 17 35  1  0  0  0  0
 18 19  1  0  0  0  0
 19 20  2  0  0  0  0
 20 21  1  0  0  0  0
 20 28  1  0  0  0  0
 21 22  2  0  0  0  0
 25 34  1  0  0  0  0
 27 35  1  0  0  0  0
 32 35  2  0  0  0  0
 33 35  2  0  0  0  0
M  END
>  <InstanceId>
3SM2_478_A_126

>  <ChemCompId>
478

>  <PdbId>
3SM2

>  <ChainId>
A

>  <ResidueNumber>
126

>  <InsertionCode>


>  <Model>
1

>  <AltIds>


>  <MissingHeavyAtoms>
0

>  <ObservedFormula>
C25 N3 O6 S

>  <Name>
{3-[(4-AMINO-BENZENESULFONYL)-ISOBUTYL-AMINO]-1-BENZYL-2-HYDROXY-PROPYL}-CARBAMIC ACID TETRAHYDRO-FURAN-3-YL ESTER

>  <SystematicName>
[(3S)-oxolan-3-yl] N-[(2S,3R)-4-[(4-aminophenyl)sulfonyl-(2-methylpropyl)amino]-3-hydroxy-1-phenyl-butan-2-yl]carbamate

>  <Synonyms>
Amprenavir

>  <Type>
NON-POLYMER

>  <Formula>
C25 H35 N3 O6 S

>  <MolecularWeight>
505.627

>  <ModifiedDate>
2020-06-17

>  <Parent>


>  <OneLetterCode>


>  <SubcomponentList>


>  <AmbiguousFlag>
N

>  <InChI>
InChI=1S/C25H35N3O6S/c1-18(2)15-28(35(31,32)22-10-8-20(26)9-11-22)16-24(29)23(14-19-6-4-3-5-7-19)27-25(30)34-21-12-13-33-17-21/h3-11,18,21,23-24,29H,12-17,26H2,1-2H3,(H,27,30)/t21-,23-,24+/m0/s1

>  <InChIKey>
YMARZQAQMVYCKC-OEMFJLHTSA-N

>  <SMILES>
CC(C)C[N@](C[C@H]([C@H](Cc1ccccc1)NC(=O)O[C@H]2CCOC2)O)S(=O)(=O)c3ccc(cc3)N

$$$$
