2Y5F_XWG_A_1244
  RCSB PDB08012018213D
Coordinates from PDB:2Y5F:A:1244 Model:1 without hydrogens
 35 40  0  0  0  0            999 V2000
   -0.5040    5.7010   27.9950  Cl 0  0  0  0  0  0  0  0  0  0  0  0
   -1.2770    7.2730   27.5840   C 0  0  0  0  0  0  0  0  0  0  0  0
   -2.3770    7.8220   28.1910   C 0  0  0  0  0  0  0  0  0  0  0  0
   -2.6990    9.0320   27.5800   C 0  0  0  0  0  0  0  0  0  0  0  0
   -0.5440    8.1750   26.3360   S 0  0  0  0  0  0  0  0  0  0  0  0
   -1.7920    9.3340   26.5820   C 0  0  0  0  0  0  0  0  0  0  0  0
   -1.8180   10.4320   25.7310   C 0  0  0  0  0  0  0  0  0  0  0  0
   -2.9060   11.1400   25.3110   C 0  0  0  0  0  0  0  0  0  0  0  0
   -0.7090   10.8190   25.0880   O 0  0  0  0  0  0  0  0  0  0  0  0
   -1.0440   11.8910   24.2560   N 0  0  0  0  0  0  0  0  0  0  0  0
   -2.3470   12.0750   24.3730   C 0  0  0  0  0  0  0  0  0  0  0  0
   -3.1590   13.1180   23.6470   C 0  0  0  0  0  0  0  0  0  0  0  0
   -4.5040   13.4520   24.1660   N 0  0  0  0  0  0  0  0  0  0  0  0
   -5.1350   14.2220   23.0740   C 0  0  0  0  0  0  0  0  0  0  0  0
   -4.7350   15.6770   23.3140   C 0  0  0  0  0  0  0  0  0  0  0  0
   -4.4180   15.7660   24.8030   C 0  0  0  0  0  0  0  0  0  0  0  0
   -4.4420   14.3340   25.3410   C 0  0  0  0  0  0  0  0  0  0  0  0
   -4.6220   13.6230   21.7710   C 0  0  0  0  0  0  0  0  0  0  0  0
   -3.4340   12.7590   22.1770   C 0  0  0  0  0  0  0  0  0  0  0  0
   -3.9270   11.3500   21.9650   C 0  0  0  0  0  0  0  0  0  0  0  0
   -3.2810   10.3010   22.1250   O 0  0  0  0  0  0  0  0  0  0  0  0
   -5.5970   12.6270   21.2260   C 0  0  0  0  0  0  0  0  0  0  0  0
   -6.5930   12.8870   20.5530   O 0  0  0  0  0  0  0  0  0  0  0  0
   -5.2690   11.3580   21.6520   N 0  0  0  0  0  0  0  0  0  0  0  0
   -5.9380   10.1520   21.1060   C 0  0  0  0  0  0  0  0  0  0  0  0
   -5.5230    9.6770   19.7290   C 0  0  0  0  0  0  0  0  0  0  0  0
   -6.4250    8.4940   19.3970   C 0  0  0  0  0  0  0  0  0  0  0  0
   -6.2420    7.9000   18.0570   N 0  3  0  0  0  0  0  0  0  0  0  0
   -6.3460    8.8810   16.9370   C 0  0  0  0  0  0  0  0  0  0  0  0
   -7.5910    9.7700   16.9810   C 0  0  0  0  0  0  0  0  0  0  0  0
   -8.7440    8.9660   16.7620   O 0  0  0  0  0  0  0  0  0  0  0  0
   -7.2340    6.8110   17.8900   C 0  0  0  0  0  0  0  0  0  0  0  0
   -6.5820    5.5360   18.4020   C 0  0  0  0  0  0  0  0  0  0  0  0
   -5.1140    5.7350   18.1010   C 0  0  0  0  0  0  0  0  0  0  0  0
   -4.9220    7.2350   18.0090   C 0  0  0  0  0  0  0  0  0  0  0  0
 12 19  1  0  0  0  0
 12 13  1  0  0  0  0
 12 11  1  0  0  0  0
  5  6  1  0  0  0  0
  5  2  1  0  0  0  0
  1  2  1  0  0  0  0
 19 18  1  0  0  0  0
 19 20  1  0  0  0  0
 13 14  1  0  0  0  0
 13 17  1  0  0  0  0
 11 10  2  0  0  0  0
 11  8  1  0  0  0  0
 18 14  1  0  0  0  0
 18 22  1  0  0  0  0
 20 24  1  0  0  0  0
 20 21  2  0  0  0  0
 14 15  1  0  0  0  0
 17 16  1  0  0  0  0
 10  9  1  0  0  0  0
  9  7  1  0  0  0  0
 22 24  1  0  0  0  0
 22 23  2  0  0  0  0
 24 25  1  0  0  0  0
 15 16  1  0  0  0  0
  8  7  2  0  0  0  0
  7  6  1  0  0  0  0
 25 26  1  0  0  0  0
  6  4  2  0  0  0  0
 26 27  1  0  0  0  0
  4  3  1  0  0  0  0
 27 28  1  0  0  0  0
  3  2  2  0  0  0  0
 28 35  1  0  0  0  0
 28 32  1  0  0  0  0
 28 29  1  0  0  0  0
 35 34  1  0  0  0  0
 32 33  1  0  0  0  0
 34 33  1  0  0  0  0
 29 30  1  0  0  0  0
 30 31  1  0  0  0  0
M  CHG  1  28   1
M  END
>  <InstanceId>
2Y5F_XWG_A_1244

>  <ChemCompId>
XWG

>  <PdbId>
2Y5F

>  <ChainId>
A

>  <ResidueNumber>
1244

>  <InsertionCode>


>  <Model>
1

>  <AltIds>


>  <MissingHeavyAtoms>
0

>  <ObservedFormula>
C25 N4 O4 S Cl

>  <Name>
(3AS,4R,5S,8AS,8BR)-4-[5-(5-CHLOROTHIOPHEN-2-YL)-1,2-OXAZOL-3-YL]-2-[3-[1-(2-HYDROXYETHYL)PYRROLIDIN-1-IUM-1-YL]PROPYL]-4,6,7,8,8A,8B-HEXAHYDRO-3AH-PYRROLO[3,4-A]PYRROLIZINE-1,3-DIONE

>  <SystematicName>
(3aS,4R,5S,8aS,8bR)-4-[5-(5-chlorothiophen-2-yl)-1,2-oxazol-3-yl]-2-[3-[1-(2-hydroxyethyl)pyrrolidin-1-ium-1-yl]propyl]-4,6,7,8,8a,8b-hexahydro-3aH-pyrrolo[3,4-a]pyrrolizine-1,3-dione

>  <Synonyms>


>  <Type>
non-polymer

>  <Formula>
C25 H32 Cl N4 O4 S

>  <MolecularWeight>
520.064

>  <ModifiedDate>
2011-12-23

>  <Parent>


>  <OneLetterCode>


>  <SubcomponentList>


>  <AmbiguousFlag>
N

>  <InChI>
InChI=1S/C25H32ClN4O4S/c26-20-7-6-19(35-20)18-15-16(27-34-18)23-22-21(17-5-3-8-28(17)23)24(32)29(25(22)33)9-4-12-30(13-14-31)10-1-2-11-30/h6-7,15,17,21-23,31H,1-5,8-14H2/q+1/t17-,21-,22-,23-/m0/s1

>  <InChIKey>
NGWQPUFWVMNLQW-ZMVGRULKSA-N

>  <SMILES>
c1cc(sc1c2cc(no2)[C@H]3[C@@H]4[C@H]([C@H]5[N@@]3CCC5)C(=O)N(C4=O)CCC[N+]6(CCCC6)CCO)Cl

$$$$
