1F4X_MGS_H_301
  RCSB PDB08012014533D
Coordinates from PDB:1F4X:H:301 Model:1 without hydrogens
 20 20  0  0  0  0            999 V2000
   -7.8070  -21.7350   18.3110   C 0  0  0  0  0  0  0  0  0  0  0  0
   -8.3470  -21.8120   19.6040   O 0  0  0  0  0  0  0  0  0  0  0  0
   -8.2540  -23.1530   20.1440   C 0  0  0  0  0  0  0  0  0  0  0  0
   -8.2330  -20.4470   17.6300   C 0  0  0  0  0  0  0  0  0  0  0  0
   -7.5690  -20.2700   16.3690   O 0  0  0  0  0  0  0  0  0  0  0  0
   -6.1850  -19.9980   16.6490   C 0  0  0  0  0  0  0  0  0  0  0  0
   -9.7530  -20.4310   17.3620   C 0  0  0  0  0  0  0  0  0  0  0  0
  -10.0820  -19.3010   16.5180   O 0  0  0  0  0  0  0  0  0  0  0  0
  -10.1110  -21.7190   16.6250   C 0  0  0  0  0  0  0  0  0  0  0  0
  -11.5860  -21.9050   16.4020   N 0  0  0  0  0  0  0  0  0  0  0  0
  -11.8900  -21.6680   15.1410   C 0  0  0  0  0  0  0  0  0  0  0  0
  -10.9450  -21.3860   14.4220   O 0  0  0  0  0  0  0  0  0  0  0  0
   -9.5410  -22.9810   17.2830   C 0  0  0  0  0  0  0  0  0  0  0  0
   -8.0930  -22.8950   17.5250   O 0  0  0  0  0  0  0  0  0  0  0  0
   -9.8510  -24.2360   16.4340   C 0  0  0  0  0  0  0  0  0  0  0  0
  -15.1280  -23.0140   13.6980   C 0  0  0  0  0  0  0  0  0  0  0  0
  -16.0240  -22.9060   14.8070   O 0  0  0  0  0  0  0  0  0  0  0  0
  -13.8460  -23.0380   14.4390   C 0  0  0  0  0  0  0  0  0  0  0  0
  -13.1310  -21.6910   14.2410   C 0  0  0  0  0  0  0  0  0  0  0  0
  -13.8570  -20.4940   14.2140   O 0  0  0  0  0  0  0  0  0  0  0  0
  1  2  1  0  0  0  0
  1  4  1  0  0  0  0
  1 14  1  0  0  0  0
  2  3  1  0  0  0  0
  4  5  1  0  0  0  0
  4  7  1  0  0  0  0
  5  6  1  0  0  0  0
  7  8  1  0  0  0  0
  7  9  1  0  0  0  0
  9 10  1  0  0  0  0
  9 13  1  0  0  0  0
 10 11  1  0  0  0  0
 11 12  2  0  0  0  0
 11 19  1  0  0  0  0
 13 14  1  0  0  0  0
 13 15  1  0  0  0  0
 16 17  1  0  0  0  0
 16 18  1  0  0  0  0
 18 19  1  0  0  0  0
 19 20  1  0  0  0  0
M  END
>  <InstanceId>
1F4X_MGS_H_301

>  <ChemCompId>
MGS

>  <PdbId>
1F4X

>  <ChainId>
H

>  <ResidueNumber>
301

>  <InsertionCode>


>  <Model>
1

>  <AltIds>


>  <MissingHeavyAtoms>
0

>  <ObservedFormula>
C12 N O7

>  <Name>
methyl 4,6-dideoxy-4-{[(2R)-2,4-dihydroxybutanoyl]amino}-2-O-methyl-alpha-D-mannopyranoside

>  <SystematicName>
(2R)-2,4-dihydroxy-N-[(2R,3S,4S,5S,6S)-4-hydroxy-5,6-dimethoxy-2-methyl-oxan-3-yl]butanamide

>  <Synonyms>
1,2-O-DIMETHYL-4-[2,4-DIHYDROXY-BUTYRAMIDO]-4,6-DIDEOXY-ALPHA-D-MANNOPYRANOSIDE; methyl 4,6-dideoxy-4-{[(2R)-2,4-dihydroxybutanoyl]amino}-2-O-methyl-alpha-D-mannoside; methyl 4,6-dideoxy-4-{[(2R)-2,4-dihydroxybutanoyl]amino}-2-O-methyl-D-mannoside; methyl 4,6-dideoxy-4-{[(2R)-2,4-dihydroxybutanoyl]amino}-2-O-methyl-mannoside

>  <Type>
D-saccharide

>  <Formula>
C12 H23 N O7

>  <MolecularWeight>
293.314

>  <ModifiedDate>
2020-07-17

>  <Parent>


>  <OneLetterCode>


>  <SubcomponentList>


>  <AmbiguousFlag>
N

>  <InChI>
InChI=1S/C12H23NO7/c1-6-8(13-11(17)7(15)4-5-14)9(16)10(18-2)12(19-3)20-6/h6-10,12,14-16H,4-5H2,1-3H3,(H,13,17)/t6-,7-,8-,9+,10+,12+/m1/s1

>  <InChIKey>
NGGZJRAGGXAXNO-DZXYHILESA-N

>  <SMILES>
C[C@@H]1[C@H]([C@@H]([C@@H]([C@H](O1)OC)OC)O)NC(=O)[C@@H](CCO)O

$$$$
