2P4S_DIH_A_401
  RCSB PDB08012017423D
Coordinates from PDB:2P4S:A:401 Model:1 without hydrogens
 19 21  0  0  0  0            999 V2000
   40.8270    5.0450  106.3490   O 0  0  0  0  0  0  0  0  0  0  0  0
   39.8860    4.0540  106.8070   C 0  0  0  0  0  0  0  0  0  0  0  0
   38.5160    4.5440  106.4060   C 0  0  0  0  0  0  0  0  0  0  0  0
   38.4480    4.8610  104.8950   C 0  0  0  0  0  0  0  0  0  0  0  0
   37.4800    3.4770  106.6860   C 0  0  0  0  0  0  0  0  0  0  0  0
   36.2630    4.1260  107.0600   O 0  0  0  0  0  0  0  0  0  0  0  0
   37.2610    2.8240  105.3340   C 0  0  0  0  0  0  0  0  0  0  0  0
   37.3440    3.9900  104.3990   N 0  3  0  0  0  0  0  0  0  0  0  0
   37.3790    3.5290  103.0030   C 0  0  0  0  0  0  0  0  0  0  0  0
   38.6840    3.0000  102.4480   C 0  0  0  0  0  0  0  0  0  0  0  0
   39.6920    3.7860  101.8280   C 0  0  0  0  0  0  0  0  0  0  0  0
   40.6970    2.9590  101.4280   N 0  0  0  0  0  0  0  0  0  0  0  0
   40.3910    1.6770  101.7580   C 0  0  0  0  0  0  0  0  0  0  0  0
   41.0470    0.3570  101.5360   C 0  0  0  0  0  0  0  0  0  0  0  0
   42.1990    0.2510  100.9440   O 0  0  0  0  0  0  0  0  0  0  0  0
   40.3700   -0.7130  102.0030   N 0  0  0  0  0  0  0  0  0  0  0  0
   39.1630   -0.6330  102.6410   C 0  0  0  0  0  0  0  0  0  0  0  0
   38.5270    0.5340  102.8280   N 0  0  0  0  0  0  0  0  0  0  0  0
   39.1340    1.6860  102.3850   C 0  0  0  0  0  0  0  0  0  0  0  0
 15 14  2  0  0  0  0
 14 16  1  0  0  0  0
 14 13  1  0  0  0  0
 12 13  1  0  0  0  0
 12 11  1  0  0  0  0
 16 17  1  0  0  0  0
 13 19  2  0  0  0  0
 11 10  2  0  0  0  0
 17 18  2  0  0  0  0
 19 10  1  0  0  0  0
 19 18  1  0  0  0  0
 10  9  1  0  0  0  0
  9  8  1  0  0  0  0
  8  4  1  0  0  0  0
  8  7  1  0  0  0  0
  4  3  1  0  0  0  0
  7  5  1  0  0  0  0
  1  2  1  0  0  0  0
  2  3  1  0  0  0  0
  3  5  1  0  0  0  0
  5  6  1  0  0  0  0
M  CHG  1   8   1
M  END
>  <InstanceId>
2P4S_DIH_A_401

>  <ChemCompId>
DIH

>  <PdbId>
2P4S

>  <ChainId>
A

>  <ResidueNumber>
401

>  <InsertionCode>


>  <Model>
1

>  <AltIds>


>  <MissingHeavyAtoms>
0

>  <ObservedFormula>
C12 N4 O3

>  <Name>
7-[[(3R,4R)-3-(hydroxymethyl)-4-oxidanyl-pyrrolidin-1-ium-1-yl]methyl]-3,5-dihydropyrrolo[3,2-d]pyrimidin-4-one

>  <SystematicName>
7-[[(3~{R},4~{R})-3-(hydroxymethyl)-4-oxidanyl-pyrrolidin-1-ium-1-yl]methyl]-3,5-dihydropyrrolo[3,2-d]pyrimidin-4-one

>  <Synonyms>


>  <Type>
NON-POLYMER

>  <Formula>
C12 H17 N4 O3

>  <MolecularWeight>
265.288

>  <ModifiedDate>
2018-12-05

>  <Parent>


>  <OneLetterCode>


>  <SubcomponentList>


>  <AmbiguousFlag>
N

>  <InChI>
InChI=1S/C12H16N4O3/c17-5-8-3-16(4-9(8)18)2-7-1-13-11-10(7)14-6-15-12(11)19/h1,6,8-9,13,17-18H,2-5H2,(H,14,15,19)/p+1/t8-,9+/m1/s1

>  <InChIKey>
AFNHHLILYQEHKK-BDAKNGLRSA-O

>  <SMILES>
c1c(c2c([nH]1)C(=O)NC=N2)C[NH+]3C[C@@H]([C@H](C3)O)CO

$$$$
