3TH9_9Y9_A_100
  RCSB PDB08012020343D
Coordinates from PDB:3TH9:A:100 Model:1 without hydrogens
 34 36  0  0  0  0            999 V2000
    9.2940   27.2360    8.4290   C 0  0  0  0  0  0  0  0  0  0  0  0
    8.3830   27.6290    7.4490   C 0  0  0  0  0  0  0  0  0  0  0  0
    8.1240   26.8590    6.2690   C 0  0  0  0  0  0  0  0  0  0  0  0
    9.9620   26.0230    8.2600   C 0  0  0  0  0  0  0  0  0  0  0  0
    7.7290   28.7630    7.6430   F 0  0  0  0  0  0  0  0  0  0  0  0
    8.7970   25.6250    6.0930   C 0  0  0  0  0  0  0  0  0  0  0  0
    9.7340   25.2360    7.0940   C 0  0  0  0  0  0  0  0  0  0  0  0
   10.6470   23.7340    6.9630   S 0  0  0  0  0  0  0  0  0  0  0  0
    8.5200   24.8350    4.8230   C 0  0  0  0  0  0  0  0  0  0  0  0
   11.4890   23.8930    5.5210   N 0  0  0  0  0  0  0  0  0  0  0  0
    9.7060   24.6400    3.8540   C 0  0  0  0  0  0  0  0  0  0  0  0
   10.7950   23.6310    4.2430   C 0  0  0  0  0  0  0  0  0  0  0  0
    9.2280   24.1810    2.4730   C 0  0  0  0  0  0  0  0  0  0  0  0
   12.7600   24.6490    5.4760   C 0  0  0  0  0  0  0  0  0  0  0  0
    9.7110   22.7300    6.7990   O 0  0  0  0  0  0  0  0  0  0  0  0
   11.6690   23.7170    7.9920   O 0  0  0  0  0  0  0  0  0  0  0  0
   13.9060   23.6980    5.0790   C 0  0  0  0  0  0  0  0  0  0  0  0
   14.3550   22.6270    6.0800   C 0  0  0  0  0  0  0  0  0  0  0  0
   15.1940   21.5910    5.3670   N 0  0  0  0  0  0  0  0  0  0  0  0
   15.0590   23.1340    7.3350   C 0  0  0  0  0  0  0  0  0  0  0  0
   15.2670   21.9790    8.2340   C 0  0  0  0  0  0  0  0  0  0  0  0
   14.1970   21.5250    9.0310   C 0  0  0  0  0  0  0  0  0  0  0  0
   14.4070   20.4080    9.8380   C 0  0  0  0  0  0  0  0  0  0  0  0
   15.6520   19.7460    9.8530   C 0  0  0  0  0  0  0  0  0  0  0  0
   16.7260   20.1970    9.0440   C 0  0  0  0  0  0  0  0  0  0  0  0
   16.5280   21.3230    8.2440   C 0  0  0  0  0  0  0  0  0  0  0  0
   14.6530   20.4550    4.8730   C 0  0  0  0  0  0  0  0  0  0  0  0
   13.4500   20.2120    4.9740   O 0  0  0  0  0  0  0  0  0  0  0  0
   15.6500   19.6910    4.2810   O 0  0  0  0  0  0  0  0  0  0  0  0
   15.0560   24.4320    4.7060   O 0  0  0  0  0  0  0  0  0  0  0  0
   15.3190   18.6040    3.4150   C 0  0  0  0  0  0  0  0  0  0  0  0
   14.5550   19.1570    2.2090   C 0  0  0  0  0  0  0  0  0  0  0  0
   16.6330   17.9920    2.9180   C 0  0  0  0  0  0  0  0  0  0  0  0
   14.5740   17.5490    4.2490   C 0  0  0  0  0  0  0  0  0  0  0  0
  1  4  2  0  0  0  0
  1  2  1  0  0  0  0
  5  2  1  0  0  0  0
  2  3  2  0  0  0  0
  3  6  1  0  0  0  0
  4  7  1  0  0  0  0
  7  6  2  0  0  0  0
  6  9  1  0  0  0  0
  7  8  1  0  0  0  0
 16  8  2  0  0  0  0
  8 10  1  0  0  0  0
  8 15  2  0  0  0  0
  9 11  1  0  0  0  0
 14 10  1  0  0  0  0
 10 12  1  0  0  0  0
 12 11  1  0  0  0  0
 11 13  1  0  0  0  0
 14 17  1  0  0  0  0
 30 17  1  0  0  0  0
 18 17  1  0  0  0  0
 20 18  1  0  0  0  0
 18 19  1  0  0  0  0
 19 27  1  0  0  0  0
 21 20  1  0  0  0  0
 26 21  2  0  0  0  0
 21 22  1  0  0  0  0
 23 22  2  0  0  0  0
 24 23  1  0  0  0  0
 25 24  2  0  0  0  0
 25 26  1  0  0  0  0
 27 29  1  0  0  0  0
 27 28  2  0  0  0  0
 29 31  1  0  0  0  0
 31 33  1  0  0  0  0
 31 34  1  0  0  0  0
 31 32  1  0  0  0  0
M  END
>  <InstanceId>
3TH9_9Y9_A_100

>  <ChemCompId>
9Y9

>  <PdbId>
3TH9

>  <ChainId>
A

>  <ResidueNumber>
100

>  <InsertionCode>


>  <Model>
1

>  <AltIds>


>  <MissingHeavyAtoms>
0

>  <ObservedFormula>
C25 N2 O5 S F

>  <Name>
tert-butyl {(2S,3R)-4-[(4S)-7-fluoro-4-methyl-1,1-dioxido-4,5-dihydro-1,2-benzothiazepin-2(3H)-yl]-3-hydroxy-1-phenylbutan-2-yl}carbamate

>  <SystematicName>
tert-butyl N-[(2S,3R)-4-[(2S,4S)-7-fluoranyl-4-methyl-1,1-bis(oxidanylidene)-4,5-dihydro-3H-1$l^{6},2-benzothiazepin-2-yl]-3-oxidanyl-1-phenyl-butan-2-yl]carbamate

>  <Synonyms>


>  <Type>
NON-POLYMER

>  <Formula>
C25 H33 F N2 O5 S

>  <MolecularWeight>
492.603

>  <ModifiedDate>
2011-09-23

>  <Parent>


>  <OneLetterCode>


>  <SubcomponentList>


>  <AmbiguousFlag>
N

>  <InChI>
InChI=1S/C25H33FN2O5S/c1-17-12-19-14-20(26)10-11-23(19)34(31,32)28(15-17)16-22(29)21(13-18-8-6-5-7-9-18)27-24(30)33-25(2,3)4/h5-11,14,17,21-22,29H,12-13,15-16H2,1-4H3,(H,27,30)/t17-,21-,22+/m0/s1

>  <InChIKey>
KMJVCYPPUACVBA-BULFRSBZSA-N

>  <SMILES>
C[C@H]1Cc2cc(ccc2S(=O)(=O)[N@@](C1)C[C@H]([C@H](Cc3ccccc3)NC(=O)OC(C)(C)C)O)F

$$$$
