1OGD_RIP_A_1134
  RCSB PDB08012015383D
Coordinates from PDB:1OGD:A:1134 Model:1 without hydrogens
 10 10  0  0  0  0            999 V2000
   51.2050    4.2670   26.5220   C 0  0  0  0  0  0  0  0  0  0  0  0
   52.0980    4.8490   27.5880   C 0  0  0  0  0  0  0  0  0  0  0  0
   51.3910    4.7860   28.9330   C 0  0  0  0  0  0  0  0  0  0  0  0
   50.8970    3.3940   29.3080   C 0  0  0  0  0  0  0  0  0  0  0  0
   50.0110    2.8980   28.1710   C 0  0  0  0  0  0  0  0  0  0  0  0
   50.0960    5.1040   26.2640   O 0  0  0  0  0  0  0  0  0  0  0  0
   53.2940    4.0990   27.6020   O 0  0  0  0  0  0  0  0  0  0  0  0
   52.2180    5.3010   29.9440   O 0  0  0  0  0  0  0  0  0  0  0  0
   51.9750    2.4910   29.4600   O 0  0  0  0  0  0  0  0  0  0  0  0
   50.6670    2.9680   26.8860   O 0  0  0  0  0  0  0  0  0  0  0  0
  1  2  1  0  0  0  0
  1  6  1  0  0  0  0
  1 10  1  0  0  0  0
  2  3  1  0  0  0  0
  2  7  1  0  0  0  0
  3  4  1  0  0  0  0
  3  8  1  0  0  0  0
  4  5  1  0  0  0  0
  4  9  1  0  0  0  0
  5 10  1  0  0  0  0
M  END
>  <InstanceId>
1OGD_RIP_A_1134

>  <ChemCompId>
RIP

>  <PdbId>
1OGD

>  <ChainId>
A

>  <ResidueNumber>
1134

>  <InsertionCode>


>  <Model>
1

>  <AltIds>


>  <MissingHeavyAtoms>
0

>  <ObservedFormula>
C5 O5

>  <Name>
beta-D-ribopyranose

>  <SystematicName>
(2R,3R,4R,5R)-oxane-2,3,4,5-tetrol

>  <Synonyms>
beta-D-ribose; D-ribose; ribose; RIBOSE(PYRANOSE FORM)

>  <Type>
D-saccharide, beta linking

>  <Formula>
C5 H10 O5

>  <MolecularWeight>
150.13

>  <ModifiedDate>
2020-07-17

>  <Parent>


>  <OneLetterCode>


>  <SubcomponentList>


>  <AmbiguousFlag>
N

>  <InChI>
InChI=1S/C5H10O5/c6-2-1-10-5(9)4(8)3(2)7/h2-9H,1H2/t2-,3-,4-,5-/m1/s1

>  <InChIKey>
SRBFZHDQGSBBOR-TXICZTDVSA-N

>  <SMILES>
C1[C@H]([C@H]([C@H]([C@@H](O1)O)O)O)O

$$$$
