4BQG_50Q_A_1225
  RCSB PDB08012021163D
Coordinates from PDB:4BQG:A:1225 Model:1 without hydrogens
 17 18  0  0  0  0            999 V2000
    5.5610   12.1080   24.0170   C 0  0  0  0  0  0  0  0  0  0  0  0
    4.5520   14.0460   25.0790   C 0  0  0  0  0  0  0  0  0  0  0  0
    3.3210   13.4180   25.2090   C 0  0  0  0  0  0  0  0  0  0  0  0
   -2.6500   11.2640   25.1580   O 0  0  0  0  0  0  0  0  0  0  0  0
   -1.5390   11.6570   24.4650   C 0  0  0  0  0  0  0  0  0  0  0  0
   -1.6320   12.2810   23.2210   C 0  0  0  0  0  0  0  0  0  0  0  0
   -0.4600   12.6490   22.5360   C 0  0  0  0  0  0  0  0  0  0  0  0
   -0.5260   13.2590   21.3400   O 0  0  0  0  0  0  0  0  0  0  0  0
    0.7830   12.3710   23.0540   C 0  0  0  0  0  0  0  0  0  0  0  0
    4.3400   11.4740   24.1430   C 0  0  0  0  0  0  0  0  0  0  0  0
    5.6310   13.4140   24.5000   C 0  0  0  0  0  0  0  0  0  0  0  0
    3.2420   12.1030   24.7210   C 0  0  0  0  0  0  0  0  0  0  0  0
    7.1640   14.3320   24.4350  Cl 0  0  0  0  0  0  0  0  0  0  0  0
    2.0800   11.3850   24.8160   O 0  0  0  0  0  0  0  0  0  0  0  0
    4.8630   15.7120   25.6620  Cl 0  0  0  0  0  0  0  0  0  0  0  0
    0.8610   11.7240   24.2800   C 0  0  0  0  0  0  0  0  0  0  0  0
   -0.2870   11.3790   24.9870   C 0  0  0  0  0  0  0  0  0  0  0  0
  1 10  1  0  0  0  0
  1 11  2  0  0  0  0
  2  3  2  0  0  0  0
  2 11  1  0  0  0  0
  2 15  1  0  0  0  0
  3 12  1  0  0  0  0
  8  7  1  0  0  0  0
  7  6  2  0  0  0  0
  7  9  1  0  0  0  0
  6  5  1  0  0  0  0
  5  4  1  0  0  0  0
  5 17  2  0  0  0  0
 17 16  1  0  0  0  0
 10 12  2  0  0  0  0
 11 13  1  0  0  0  0
 12 14  1  0  0  0  0
 14 16  1  0  0  0  0
 16  9  2  0  0  0  0
M  END
>  <InstanceId>
4BQG_50Q_A_1225

>  <ChemCompId>
50Q

>  <PdbId>
4BQG

>  <ChainId>
A

>  <ResidueNumber>
1225

>  <InsertionCode>


>  <Model>
1

>  <AltIds>


>  <MissingHeavyAtoms>
0

>  <ObservedFormula>
C12 O3 Cl2

>  <Name>
5-(3,4-dichloro-phenoxy)-benzene-1,3-diol

>  <SystematicName>
5-[3,4-bis(chloranyl)phenoxy]benzene-1,3-diol

>  <Synonyms>


>  <Type>
non-polymer

>  <Formula>
C12 H8 Cl2 O3

>  <MolecularWeight>
271.096

>  <ModifiedDate>
2014-09-05

>  <Parent>


>  <OneLetterCode>


>  <SubcomponentList>


>  <AmbiguousFlag>
N

>  <InChI>
InChI=1S/C12H8Cl2O3/c13-11-2-1-9(6-12(11)14)17-10-4-7(15)3-8(16)5-10/h1-6,15-16H

>  <InChIKey>
MACRIRNSUBEWEK-UHFFFAOYSA-N

>  <SMILES>
c1cc(c(cc1Oc2cc(cc(c2)O)O)Cl)Cl

$$$$
