2UXI_G50_A_1211
  RCSB PDB08012017583D
Coordinates from PDB:2UXI:A:1211 Model:1 without hydrogens
 20 21  0  0  0  0            999 V2000
   22.0700   37.5490   -4.4390   C 0  0  0  0  0  0  0  0  0  0  0  0
   22.2280   38.8360   -4.9340   C 0  0  0  0  0  0  0  0  0  0  0  0
   21.1540   39.6940   -5.0340   C 0  0  0  0  0  0  0  0  0  0  0  0
   19.8980   39.2480   -4.6430   C 0  0  0  0  0  0  0  0  0  0  0  0
   19.6980   37.9460   -4.1390   C 0  0  0  0  0  0  0  0  0  0  0  0
   20.8140   37.0930   -4.0360   C 0  0  0  0  0  0  0  0  0  0  0  0
   18.2600   37.5140   -3.7140   C 0  0  0  0  0  0  0  0  0  0  0  0
   17.6440   36.1170   -4.0290   C 0  0  0  0  0  0  0  0  0  0  0  0
   16.3330   35.8790   -3.1190   C 0  0  0  0  0  0  0  0  0  0  0  0
   20.7340   35.8220   -3.5610   O 0  0  0  0  0  0  0  0  0  0  0  0
   17.5670   38.3320   -3.1090   O 0  0  0  0  0  0  0  0  0  0  0  0
   15.6880   34.5080   -3.4520   C 0  0  0  0  0  0  0  0  0  0  0  0
   15.7370   34.0680   -4.7790   C 0  0  0  0  0  0  0  0  0  0  0  0
   15.2050   32.8380   -5.1300   C 0  0  0  0  0  0  0  0  0  0  0  0
   14.5930   32.0420   -4.1790   C 0  0  0  0  0  0  0  0  0  0  0  0
   14.5270   32.4680   -2.8400   C 0  0  0  0  0  0  0  0  0  0  0  0
   15.0800   33.7010   -2.4690   C 0  0  0  0  0  0  0  0  0  0  0  0
   14.0870   30.8460   -4.5950   O 0  0  0  0  0  0  0  0  0  0  0  0
   23.4320   39.2650   -5.3290   O 0  0  0  0  0  0  0  0  0  0  0  0
   18.8950   40.1380   -4.7770   O 0  0  0  0  0  0  0  0  0  0  0  0
  2  1  2  0  0  0  0
  3  2  1  0  0  0  0
  3  4  2  0  0  0  0
  5  4  1  0  0  0  0
  6  5  2  0  0  0  0
  1  6  1  0  0  0  0
  5  7  1  0  0  0  0
  7  8  1  0  0  0  0
  8  9  1  0  0  0  0
  6 10  1  0  0  0  0
  7 11  2  0  0  0  0
  9 12  1  0  0  0  0
 12 13  1  0  0  0  0
 13 14  2  0  0  0  0
 14 15  1  0  0  0  0
 15 16  2  0  0  0  0
 12 17  2  0  0  0  0
 16 17  1  0  0  0  0
 15 18  1  0  0  0  0
  2 19  1  0  0  0  0
  4 20  1  0  0  0  0
M  END
>  <InstanceId>
2UXI_G50_A_1211

>  <ChemCompId>
G50

>  <PdbId>
2UXI

>  <ChainId>
A

>  <ResidueNumber>
1211

>  <InsertionCode>


>  <Model>
1

>  <AltIds>


>  <MissingHeavyAtoms>
0

>  <ObservedFormula>
C15 O5

>  <Name>
3-(4-HYDROXYPHENYL)-1-(2,4,6-TRIHYDROXYPHENYL)PROPAN-1-ONE

>  <SystematicName>
3-(4-hydroxyphenyl)-1-(2,4,6-trihydroxyphenyl)propan-1-one

>  <Synonyms>


>  <Type>
NON-POLYMER

>  <Formula>
C15 H14 O5

>  <MolecularWeight>
274.269

>  <ModifiedDate>
2011-06-04

>  <Parent>


>  <OneLetterCode>


>  <SubcomponentList>


>  <AmbiguousFlag>


>  <InChI>
InChI=1S/C15H14O5/c16-10-4-1-9(2-5-10)3-6-12(18)15-13(19)7-11(17)8-14(15)20/h1-2,4-5,7-8,16-17,19-20H,3,6H2

>  <InChIKey>
VGEREEWJJVICBM-UHFFFAOYSA-N

>  <SMILES>
c1cc(ccc1CCC(=O)c2c(cc(cc2O)O)O)O

$$$$
