4AVH_FK9_A_201
  RCSB PDB08012021093D
Coordinates from PDB:4AVH:A:201 Model:1 without hydrogens
 19 19  0  0  0  0            999 V2000
  -59.5600  -16.5790  -20.9070   O 0  0  0  0  0  0  0  0  0  0  0  0
  -60.8670  -16.8520  -20.3710   C 0  0  0  0  0  0  0  0  0  0  0  0
  -61.2620  -18.2800  -20.7120   C 0  0  0  0  0  0  0  0  0  0  0  0
  -61.1550  -18.5120  -22.1380   O 0  0  0  0  0  0  0  0  0  0  0  0
  -60.3820  -19.2610  -19.9420   C 0  0  0  0  0  0  0  0  0  0  0  0
  -60.5720  -19.1100  -18.5280   O 0  0  0  0  0  0  0  0  0  0  0  0
  -60.7150  -20.6980  -20.3180   C 0  0  0  0  0  0  0  0  0  0  0  0
  -59.8220  -21.5720  -19.6170   O 0  0  0  0  0  0  0  0  0  0  0  0
  -60.6050  -20.8770  -21.8330   C 0  0  0  0  0  0  0  0  0  0  0  0
  -59.2570  -20.6500  -22.2880   O 0  0  0  0  0  0  0  0  0  0  0  0
  -61.5050  -19.8570  -22.5240   C 0  0  0  0  0  0  0  0  0  0  0  0
  -62.8570  -20.1380  -22.1570   O 0  0  0  0  0  0  0  0  0  0  0  0
  -63.7680  -19.5240  -23.0640   C 0  0  0  0  0  0  0  0  0  0  0  0
  -65.2000  -19.7770  -22.6230   C 0  0  0  0  0  0  0  0  0  0  0  0
  -66.0290  -18.5270  -22.8650   C 0  0  0  0  0  0  0  0  0  0  0  0
  -68.4490  -17.1740  -22.1860   C 0  0  0  0  0  0  0  0  0  0  0  0
  -67.8730  -15.8240  -21.7750   C 0  0  0  0  0  0  0  0  0  0  0  0
  -68.8090  -14.6870  -22.1430   C 0  0  0  0  0  0  0  0  0  0  0  0
  -67.3570  -18.4800  -21.7200   S 0  0  0  0  0  0  0  0  0  0  0  0
  1  2  1  0  0  0  0
  2  3  1  0  0  0  0
  3  4  1  0  0  0  0
  3  5  1  0  0  0  0
  4 11  1  0  0  0  0
  5  6  1  0  0  0  0
  5  7  1  0  0  0  0
  7  8  1  0  0  0  0
  7  9  1  0  0  0  0
  9 10  1  0  0  0  0
  9 11  1  0  0  0  0
 11 12  1  0  0  0  0
 12 13  1  0  0  0  0
 13 14  1  0  0  0  0
 14 15  1  0  0  0  0
 15 19  1  0  0  0  0
 18 17  1  0  0  0  0
 17 16  1  0  0  0  0
 16 19  1  0  0  0  0
M  END
>  <InstanceId>
4AVH_FK9_A_201

>  <ChemCompId>
FK9

>  <PdbId>
4AVH

>  <ChainId>
A

>  <ResidueNumber>
201

>  <InsertionCode>


>  <Model>
1

>  <AltIds>


>  <MissingHeavyAtoms>
0

>  <ObservedFormula>
C12 O6 S

>  <Name>
3-(propylsulfanyl)propyl alpha-D-mannopyranoside

>  <SystematicName>
(2R,3S,4S,5S,6S)-2-(hydroxymethyl)-6-(3-propylsulfanylpropoxy)oxane-3,4,5-triol

>  <Synonyms>
PROPYL THIOPROPYL ALPHA-D-MANNOPYRANOSIDE; 3-(propylsulfanyl)propyl alpha-D-mannoside; 3-(propylsulfanyl)propyl D-mannoside; 3-(propylsulfanyl)propyl mannoside

>  <Type>
D-saccharide

>  <Formula>
C12 H24 O6 S

>  <MolecularWeight>
296.38

>  <ModifiedDate>
2020-07-17

>  <Parent>
MAN

>  <OneLetterCode>


>  <SubcomponentList>


>  <AmbiguousFlag>
N

>  <InChI>
InChI=1S/C12H24O6S/c1-2-5-19-6-3-4-17-12-11(16)10(15)9(14)8(7-13)18-12/h8-16H,2-7H2,1H3/t8-,9-,10+,11+,12+/m1/s1

>  <InChIKey>
VPHBOBPNUZWASC-GCHJQGSQSA-N

>  <SMILES>
CCCSCCCO[C@@H]1[C@H]([C@H]([C@@H]([C@H](O1)CO)O)O)O

$$$$
