3S43_478_A_401
  RCSB PDB08012020253D
Coordinates from PDB:3S43:A:401 Model:1 without hydrogens
 35 37  0  0  0  0            999 V2000
   12.6350   18.2260   19.7570   C 0  0  0  0  0  0  0  0  0  0  0  0
   14.6010   19.0590   20.8660   C 0  0  0  0  0  0  0  0  0  0  0  0
   14.7900   20.7470   18.3190   C 0  0  0  0  0  0  0  0  0  0  0  0
   13.9950   18.8340   19.4730   C 0  0  0  0  0  0  0  0  0  0  0  0
   15.2610   22.9200   17.1960   C 0  0  0  0  0  0  0  0  0  0  0  0
   15.6900   24.0290   18.1510   C 0  0  0  0  0  0  0  0  0  0  0  0
   14.4680   23.3860   15.9600   C 0  0  0  0  0  0  0  0  0  0  0  0
   14.0620   22.2520   15.0600   C 0  0  0  0  0  0  0  0  0  0  0  0
   12.7810   21.7330   15.0120   C 0  0  0  0  0  0  0  0  0  0  0  0
   15.0160   21.6200   14.2340   C 0  0  0  0  0  0  0  0  0  0  0  0
   12.4870   20.5960   14.2590   C 0  0  0  0  0  0  0  0  0  0  0  0
   14.7740   20.5230   13.4130   C 0  0  0  0  0  0  0  0  0  0  0  0
   13.4750   20.0120   13.4750   C 0  0  0  0  0  0  0  0  0  0  0  0
   16.7510   24.9870   17.5370   C 0  0  0  0  0  0  0  0  0  0  0  0
   18.9000   24.6650   18.6800   C 0  0  0  0  0  0  0  0  0  0  0  0
   18.6410   23.9570   20.0300   C 0  0  0  0  0  0  0  0  0  0  0  0
   19.4650   25.4270   15.4260   C 0  0  0  0  0  0  0  0  0  0  0  0
   18.7070   26.2940   14.6320   C 0  0  0  0  0  0  0  0  0  0  0  0
   19.2470   27.5290   14.2230   C 0  0  0  0  0  0  0  0  0  0  0  0
   20.5110   27.9530   14.6620   C 0  0  0  0  0  0  0  0  0  0  0  0
   21.2690   27.0370   15.4200   C 0  0  0  0  0  0  0  0  0  0  0  0
   20.6950   25.8680   15.8650   C 0  0  0  0  0  0  0  0  0  0  0  0
   18.8800   22.4520   19.8730   C 0  0  0  0  0  0  0  0  0  0  0  0
   19.6650   24.5510   21.0080   C 0  0  0  0  0  0  0  0  0  0  0  0
   13.5080   18.6350   21.8460   C 0  0  0  0  0  0  0  0  0  0  0  0
   14.4280   21.9640   17.9130   N 0  0  0  0  0  0  0  0  0  0  0  0
   18.0700   24.3890   17.5710   N 0  0  0  0  0  0  0  0  0  0  0  0
   21.1210   29.0360   14.1780   N 0  0  0  0  0  0  0  0  0  0  0  0
   13.7140   20.1220   18.9310   O 0  0  0  0  0  0  0  0  0  0  0  0
   15.8990   20.2770   18.2330   O 0  0  0  0  0  0  0  0  0  0  0  0
   14.5730   24.8820   18.4580   O 0  0  0  0  0  0  0  0  0  0  0  0
   17.6490   23.6920   15.1640   O 0  0  0  0  0  0  0  0  0  0  0  0
   19.7190   22.9040   16.3290   O 0  0  0  0  0  0  0  0  0  0  0  0
   12.3130   18.6930   21.0730   O 0  0  0  0  0  0  0  0  0  0  0  0
   18.7460   23.9790   16.1310   S 0  0  0  0  0  0  0  0  0  0  0  0
  1  4  1  0  0  0  0
  1 34  1  0  0  0  0
  2  4  1  0  0  0  0
  2 25  1  0  0  0  0
  3 26  1  0  0  0  0
  3 29  1  0  0  0  0
  3 30  2  0  0  0  0
  4 29  1  0  0  0  0
  5  6  1  0  0  0  0
  5  7  1  0  0  0  0
  5 26  1  0  0  0  0
  6 14  1  0  0  0  0
  6 31  1  0  0  0  0
  7  8  1  0  0  0  0
  8  9  2  0  0  0  0
  8 10  1  0  0  0  0
  9 11  1  0  0  0  0
 10 12  2  0  0  0  0
 11 13  2  0  0  0  0
 12 13  1  0  0  0  0
 14 27  1  0  0  0  0
 15 16  1  0  0  0  0
 15 27  1  0  0  0  0
 16 23  1  0  0  0  0
 16 24  1  0  0  0  0
 17 18  2  0  0  0  0
 17 22  1  0  0  0  0
 17 35  1  0  0  0  0
 18 19  1  0  0  0  0
 19 20  2  0  0  0  0
 20 21  1  0  0  0  0
 20 28  1  0  0  0  0
 21 22  2  0  0  0  0
 25 34  1  0  0  0  0
 27 35  1  0  0  0  0
 32 35  2  0  0  0  0
 33 35  2  0  0  0  0
M  END
>  <InstanceId>
3S43_478_A_401

>  <ChemCompId>
478

>  <PdbId>
3S43

>  <ChainId>
A

>  <ResidueNumber>
401

>  <InsertionCode>


>  <Model>
1

>  <AltIds>


>  <MissingHeavyAtoms>
0

>  <ObservedFormula>
C25 N3 O6 S

>  <Name>
{3-[(4-AMINO-BENZENESULFONYL)-ISOBUTYL-AMINO]-1-BENZYL-2-HYDROXY-PROPYL}-CARBAMIC ACID TETRAHYDRO-FURAN-3-YL ESTER

>  <SystematicName>
[(3S)-oxolan-3-yl] N-[(2S,3R)-4-[(4-aminophenyl)sulfonyl-(2-methylpropyl)amino]-3-hydroxy-1-phenyl-butan-2-yl]carbamate

>  <Synonyms>
Amprenavir

>  <Type>
NON-POLYMER

>  <Formula>
C25 H35 N3 O6 S

>  <MolecularWeight>
505.627

>  <ModifiedDate>
2020-06-17

>  <Parent>


>  <OneLetterCode>


>  <SubcomponentList>


>  <AmbiguousFlag>
N

>  <InChI>
InChI=1S/C25H35N3O6S/c1-18(2)15-28(35(31,32)22-10-8-20(26)9-11-22)16-24(29)23(14-19-6-4-3-5-7-19)27-25(30)34-21-12-13-33-17-21/h3-11,18,21,23-24,29H,12-17,26H2,1-2H3,(H,27,30)/t21-,23-,24+/m0/s1

>  <InChIKey>
YMARZQAQMVYCKC-OEMFJLHTSA-N

>  <SMILES>
CC(C)C[N@](C[C@H]([C@H](Cc1ccccc1)NC(=O)O[C@H]2CCOC2)O)S(=O)(=O)c3ccc(cc3)N

$$$$
