2BVD_ISX_A_1284
  RCSB PDB08012016433D
Coordinates from PDB:2BVD:A:1284 Model:1 without hydrogens
 21 22  0  0  0  0            999 V2000
   15.1490   34.6620   17.1450   O 0  0  0  0  0  0  0  0  0  0  0  0
   19.2110   34.2660   14.6220   C 0  0  0  0  0  0  0  0  0  0  0  0
   17.9550   33.9880   13.9340   N 0  0  0  0  0  0  0  0  0  0  0  0
   19.2900   33.6050   16.0020   C 0  0  0  0  0  0  0  0  0  0  0  0
   20.3500   34.2280   16.7430   O 0  0  0  0  0  0  0  0  0  0  0  0
   18.0160   33.7770   16.8180   C 0  0  0  0  0  0  0  0  0  0  0  0
   18.1490   33.0370   18.0430   O 0  0  0  0  0  0  0  0  0  0  0  0
   16.8190   33.3150   15.9790   C 0  0  0  0  0  0  0  0  0  0  0  0
   16.7150   34.1390   14.6970   C 0  0  0  0  0  0  0  0  0  0  0  0
   21.5980   33.5810   16.5500   C 0  0  0  0  0  0  0  0  0  0  0  0
   22.6950   34.5650   16.9460   C 0  0  0  0  0  0  0  0  0  0  0  0
   22.7420   35.6760   16.0370   O 0  0  0  0  0  0  0  0  0  0  0  0
   24.0590   33.8810   17.0400   C 0  0  0  0  0  0  0  0  0  0  0  0
   25.0090   34.8100   17.5730   O 0  0  0  0  0  0  0  0  0  0  0  0
   23.9870   32.6220   17.9080   C 0  0  0  0  0  0  0  0  0  0  0  0
   25.2500   31.9450   17.9170   O 0  0  0  0  0  0  0  0  0  0  0  0
   22.8810   31.7170   17.3480   C 0  0  0  0  0  0  0  0  0  0  0  0
   15.4840   33.3330   16.7320   C 0  0  0  0  0  0  0  0  0  0  0  0
   22.7020   30.4370   18.1490   C 0  0  0  0  0  0  0  0  0  0  0  0
   22.1780   30.7760   19.4390   O 0  0  0  0  0  0  0  0  0  0  0  0
   21.6580   32.4420   17.4130   O 0  0  0  0  0  0  0  0  0  0  0  0
  1 18  1  0  0  0  0
  2  3  1  0  0  0  0
  2  4  1  0  0  0  0
  3  9  1  0  0  0  0
  4  5  1  0  0  0  0
  4  6  1  0  0  0  0
  5 10  1  0  0  0  0
  6  7  1  0  0  0  0
  6  8  1  0  0  0  0
  8  9  1  0  0  0  0
  8 18  1  0  0  0  0
 10 11  1  0  0  0  0
 10 21  1  0  0  0  0
 11 12  1  0  0  0  0
 11 13  1  0  0  0  0
 13 14  1  0  0  0  0
 13 15  1  0  0  0  0
 15 16  1  0  0  0  0
 15 17  1  0  0  0  0
 17 19  1  0  0  0  0
 17 21  1  0  0  0  0
 19 20  1  0  0  0  0
M  END
>  <InstanceId>
2BVD_ISX_A_1284

>  <ChemCompId>
ISX

>  <PdbId>
2BVD

>  <ChainId>
A

>  <ResidueNumber>
1284

>  <InsertionCode>


>  <Model>
1

>  <AltIds>


>  <MissingHeavyAtoms>
0

>  <ObservedFormula>
C12 N O8

>  <Name>
(3R,4R,5R)-4-hydroxy-5-(hydroxymethyl)piperidin-3-yl beta-D-glucopyranoside

>  <SystematicName>
(2R,3R,4S,5S,6R)-2-[(3R,4R,5R)-4-hydroxy-5-(hydroxymethyl)piperidin-3-yl]oxy-6-(hydroxymethyl)oxane-3,4,5-triol

>  <Synonyms>
GLUCOSE BETA-1,3-ISOFAGAMINE; (3R,4R,5R)-4-hydroxy-5-(hydroxymethyl)piperidin-3-yl beta-D-glucoside; (3R,4R,5R)-4-hydroxy-5-(hydroxymethyl)piperidin-3-yl D-glucoside; (3R,4R,5R)-4-hydroxy-5-(hydroxymethyl)piperidin-3-yl glucoside

>  <Type>
D-saccharide

>  <Formula>
C12 H23 N O8

>  <MolecularWeight>
309.313

>  <ModifiedDate>
2020-07-17

>  <Parent>
BGC

>  <OneLetterCode>


>  <SubcomponentList>


>  <AmbiguousFlag>
N

>  <InChI>
InChI=1S/C12H23NO8/c14-3-5-1-13-2-6(8(5)16)20-12-11(19)10(18)9(17)7(4-15)21-12/h5-19H,1-4H2/t5-,6-,7-,8-,9-,10+,11-,12-/m1/s1

>  <InChIKey>
BEXVSXHKIARRKH-FYKVHUBJSA-N

>  <SMILES>
C1[C@@H]([C@H]([C@@H](CN1)O[C@H]2[C@@H]([C@H]([C@@H]([C@H](O2)CO)O)O)O)O)CO

$$$$
