5UT6_8MY_A_901
  RCSB PDB08022003153D
Coordinates from PDB:5UT6:A:901 Model:1 without hydrogens
 23 25  0  0  0  0            999 V2000
  -28.9820   16.5900   75.7200   C 0  0  0  0  0  0  0  0  0  0  0  0
  -29.3040   14.4610   76.8000   C 0  0  0  0  0  0  0  0  0  0  0  0
  -29.5650   12.2770   77.6190   C 0  0  0  0  0  0  0  0  0  0  0  0
  -27.4290   11.6310   77.5570   C 0  0  0  0  0  0  0  0  0  0  0  0
  -34.7110   16.1310   76.9900   C 0  0  0  0  0  0  0  0  0  0  0  0
  -36.9200   13.8150   78.9540   C 0  0  0  0  0  0  0  0  0  0  0  0
  -35.6620   14.4450   78.3780   C 0  0  0  0  0  0  0  0  0  0  0  0
  -34.4180   13.9280   78.6820   C 0  0  0  0  0  0  0  0  0  0  0  0
  -33.2900   14.5250   78.1330   C 0  0  0  0  0  0  0  0  0  0  0  0
  -33.4650   15.6240   77.2920   C 0  0  0  0  0  0  0  0  0  0  0  0
  -31.0160   15.9450   76.5310   C 0  0  0  0  0  0  0  0  0  0  0  0
  -28.4750   15.3600   76.1580   C 0  0  0  0  0  0  0  0  0  0  0  0
  -28.7020   11.2190   77.8750   C 0  0  0  0  0  0  0  0  0  0  0  0
  -26.1630   10.7830   77.6700   C 0  0  0  0  0  0  0  0  0  0  0  0
  -35.8200   15.5270   77.5390   C 0  0  0  0  0  0  0  0  0  0  0  0
  -37.8710   13.3680   79.3630   N 0  0  0  0  0  0  0  0  0  0  0  0
  -32.3680   16.3430   76.6900   N 0  0  0  0  0  0  0  0  0  0  0  0
  -30.2480   16.8600   75.9170   N 0  0  0  0  0  0  0  0  0  0  0  0
  -28.1050   17.5270   75.0400   N 0  0  0  0  0  0  0  0  0  0  0  0
  -28.8270   13.2800   77.1950   N 0  0  0  0  0  0  0  0  0  0  0  0
  -27.5140   12.8970   77.1320   N 0  0  0  0  0  0  0  0  0  0  0  0
  -30.5670   14.7970   76.9530   N 0  0  0  0  0  0  0  0  0  0  0  0
  -25.5200   10.8700   76.4200   O 0  0  0  0  0  0  0  0  0  0  0  0
 19  1  1  0  0  0  0
  1 18  2  0  0  0  0
  1 12  1  0  0  0  0
 18 11  1  0  0  0  0
 12  2  2  0  0  0  0
 23 14  1  0  0  0  0
 11 17  1  0  0  0  0
 11 22  2  0  0  0  0
 17 10  1  0  0  0  0
  2 22  1  0  0  0  0
  2 20  1  0  0  0  0
  5 10  2  0  0  0  0
  5 15  1  0  0  0  0
 21 20  1  0  0  0  0
 21  4  2  0  0  0  0
 20  3  1  0  0  0  0
 10  9  1  0  0  0  0
 15  7  2  0  0  0  0
  4 14  1  0  0  0  0
  4 13  1  0  0  0  0
  3 13  2  0  0  0  0
  9  8  2  0  0  0  0
  7  8  1  0  0  0  0
  7  6  1  0  0  0  0
  6 16  3  0  0  0  0
M  END
>  <InstanceId>
5UT6_8MY_A_901

>  <ChemCompId>
8MY

>  <PdbId>
5UT6

>  <ChainId>
A

>  <ResidueNumber>
901

>  <InsertionCode>


>  <Model>
1

>  <AltIds>


>  <MissingHeavyAtoms>
0

>  <ObservedFormula>
C15 N7 O

>  <Name>
4-({4-amino-6-[3-(hydroxymethyl)-1H-pyrazol-1-yl]pyrimidin-2-yl}amino)benzonitrile

>  <SystematicName>
4-[[4-azanyl-6-[3-(hydroxymethyl)pyrazol-1-yl]pyrimidin-2-yl]amino]benzenecarbonitrile

>  <Synonyms>


>  <Type>
NON-POLYMER

>  <Formula>
C15 H13 N7 O

>  <MolecularWeight>
307.31

>  <ModifiedDate>
2017-06-02

>  <Parent>


>  <OneLetterCode>


>  <SubcomponentList>


>  <AmbiguousFlag>
N

>  <InChI>
InChI=1S/C15H13N7O/c16-8-10-1-3-11(4-2-10)18-15-19-13(17)7-14(20-15)22-6-5-12(9-23)21-22/h1-7,23H,9H2,(H3,17,18,19,20)

>  <InChIKey>
NMBKNACBCUDEER-UHFFFAOYSA-N

>  <SMILES>
c1cc(ccc1C#N)Nc2nc(cc(n2)n3ccc(n3)CO)N

$$$$
