1H0A_I3P_A_1164
  RCSB PDB08012015013D
Coordinates from PDB:1H0A:A:1164 Model:1 without hydrogens
 24 24  0  0  0  0            999 V2000
   24.2490   33.7590    2.6630   C 0  0  0  0  0  0  0  0  0  0  0  0
   25.2730   34.2920    3.6720   C 0  0  0  0  0  0  0  0  0  0  0  0
   24.5950   35.1830    4.6990   C 0  0  0  0  0  0  0  0  0  0  0  0
   23.4780   34.4220    5.3690   C 0  0  0  0  0  0  0  0  0  0  0  0
   22.5040   33.8070    4.4240   C 0  0  0  0  0  0  0  0  0  0  0  0
   23.1010   32.9800    3.2340   C 0  0  0  0  0  0  0  0  0  0  0  0
   24.8500   32.8300    1.6700   O 0  0  0  0  0  0  0  0  0  0  0  0
   26.0520   33.2780    4.3490   O 0  0  0  0  0  0  0  0  0  0  0  0
   25.6250   35.6510    5.5670   O 0  0  0  0  0  0  0  0  0  0  0  0
   22.7360   35.2870    6.1890   O 0  0  0  0  0  0  0  0  0  0  0  0
   21.6280   32.9670    5.2160   O 0  0  0  0  0  0  0  0  0  0  0  0
   22.1450   32.4590    2.2800   O 0  0  0  0  0  0  0  0  0  0  0  0
   25.3570   33.6030    0.2980   P 0  0  0  0  0  0  0  0  0  0  0  0
   24.1360   33.9980   -0.3600   O 0  0  0  0  0  0  0  0  0  0  0  0
   26.0320   32.4330   -0.3300   O 0  0  0  0  0  0  0  0  0  0  0  0
   26.2130   34.6960    0.5730   O 0  0  0  0  0  0  0  0  0  0  0  0
   23.0350   35.7650    7.6950   P 0  0  0  0  0  0  0  0  0  0  0  0
   23.4940   34.4880    8.5010   O 0  0  0  0  0  0  0  0  0  0  0  0
   24.1780   36.7050    7.6620   O 0  0  0  0  0  0  0  0  0  0  0  0
   21.7350   36.2440    8.0820   O 0  0  0  0  0  0  0  0  0  0  0  0
   20.0800   32.8440    5.0820   P 0  0  0  0  0  0  0  0  0  0  0  0
   19.5310   31.6730    5.8560   O 0  0  0  0  0  0  0  0  0  0  0  0
   19.7600   32.3010    3.6930   O 0  0  0  0  0  0  0  0  0  0  0  0
   19.3980   34.1230    5.4990   O 0  0  0  0  0  0  0  0  0  0  0  0
  1  2  1  0  0  0  0
  1  6  1  0  0  0  0
  1  7  1  0  0  0  0
  2  3  1  0  0  0  0
  2  8  1  0  0  0  0
  3  4  1  0  0  0  0
  3  9  1  0  0  0  0
  4  5  1  0  0  0  0
  4 10  1  0  0  0  0
  5  6  1  0  0  0  0
  5 11  1  0  0  0  0
  6 12  1  0  0  0  0
  7 13  1  0  0  0  0
 10 17  1  0  0  0  0
 11 21  1  0  0  0  0
 13 14  2  0  0  0  0
 13 15  1  0  0  0  0
 13 16  1  0  0  0  0
 17 18  2  0  0  0  0
 17 19  1  0  0  0  0
 17 20  1  0  0  0  0
 21 22  2  0  0  0  0
 21 23  1  0  0  0  0
 21 24  1  0  0  0  0
M  END
>  <InstanceId>
1H0A_I3P_A_1164

>  <ChemCompId>
I3P

>  <PdbId>
1H0A

>  <ChainId>
A

>  <ResidueNumber>
1164

>  <InsertionCode>


>  <Model>
1

>  <AltIds>


>  <MissingHeavyAtoms>
0

>  <ObservedFormula>
C6 O15 P3

>  <Name>
D-MYO-INOSITOL-1,4,5-TRIPHOSPHATE

>  <SystematicName>
[(1R,2R,3S,4R,5R,6S)-2,3,6-trihydroxy-4,5-diphosphonooxy-cyclohexyl] dihydrogen phosphate

>  <Synonyms>


>  <Type>
NON-POLYMER

>  <Formula>
C6 H15 O15 P3

>  <MolecularWeight>
420.096

>  <ModifiedDate>
2011-06-04

>  <Parent>


>  <OneLetterCode>


>  <SubcomponentList>


>  <AmbiguousFlag>
N

>  <InChI>
InChI=1S/C6H15O15P3/c7-1-2(8)5(20-23(13,14)15)6(21-24(16,17)18)3(9)4(1)19-22(10,11)12/h1-9H,(H2,10,11,12)(H2,13,14,15)(H2,16,17,18)/t1-,2+,3+,4-,5-,6-/m1/s1

>  <InChIKey>
MMWCIQZXVOZEGG-XJTPDSDZSA-N

>  <SMILES>
[C@H]1([C@@H]([C@H]([C@@H]([C@H]([C@@H]1OP(=O)(O)O)O)OP(=O)(O)O)OP(=O)(O)O)O)O

$$$$
