3HLL_I45_A_401
  RCSB PDB08012019133D
Coordinates from PDB:3HLL:A:401 Model:1 without hydrogens
 30 32  0  0  0  0            999 V2000
   36.6840   36.6680   18.2600   C 0  0  0  0  0  0  0  0  0  0  0  0
   38.0040   37.0480   18.1550   C 0  0  0  0  0  0  0  0  0  0  0  0
   38.5950   37.3040   16.9450   C 0  0  0  0  0  0  0  0  0  0  0  0
   37.8490   37.1850   15.8030   C 0  0  0  0  0  0  0  0  0  0  0  0
   36.5260   36.8090   15.8790   C 0  0  0  0  0  0  0  0  0  0  0  0
   35.9440   36.5560   17.1050   C 0  0  0  0  0  0  0  0  0  0  0  0
   36.0660   36.4280   19.5890   C 0  0  0  0  0  0  0  0  0  0  0  0
   35.6680   37.7740   19.9480   O 0  0  0  0  0  0  0  0  0  0  0  0
   35.3280   37.9990   21.2810   C 0  0  0  0  0  0  0  0  0  0  0  0
   35.0660   39.2620   21.6780   C 0  0  0  0  0  0  0  0  0  0  0  0
   34.6970   39.5170   23.0960   C 0  0  0  0  0  0  0  0  0  0  0  0
   34.6460   38.4050   23.9230   N 0  0  0  0  0  0  0  0  0  0  0  0
   34.9310   37.1250   23.4710   C 0  0  0  0  0  0  0  0  0  0  0  0
   35.2580   36.9000   22.1960   C 0  0  0  0  0  0  0  0  0  0  0  0
   34.2270   38.6030   25.2470   C 0  0  0  0  0  0  0  0  0  0  0  0
   35.1530   39.0970   26.1480   C 0  0  0  0  0  0  0  0  0  0  0  0
   34.7600   39.2740   27.4600   C 0  0  0  0  0  0  0  0  0  0  0  0
   33.4800   38.9770   27.8680   C 0  0  0  0  0  0  0  0  0  0  0  0
   32.5700   38.4900   26.9640   C 0  0  0  0  0  0  0  0  0  0  0  0
   32.9380   38.2980   25.6500   C 0  0  0  0  0  0  0  0  0  0  0  0
   38.7710   37.1710   19.2450   F 0  0  0  0  0  0  0  0  0  0  0  0
   38.4340   37.4590   14.6230   F 0  0  0  0  0  0  0  0  0  0  0  0
   35.1590   40.6940   20.5260  Br 0  0  0  0  0  0  0  0  0  0  0  0
   34.4600   40.6580   23.4590   O 0  0  0  0  0  0  0  0  0  0  0  0
   34.8520   35.9970   24.4400   C 0  0  0  0  0  0  0  0  0  0  0  0
   35.7200   39.8060   28.4400   C 0  0  0  0  0  0  0  0  0  0  0  0
   36.5860   40.5800   28.0490   O 0  0  0  0  0  0  0  0  0  0  0  0
   35.5210   39.4160   29.7530   N 0  0  0  0  0  0  0  0  0  0  0  0
   35.5240   38.0420   30.2060   C 0  0  0  0  0  0  0  0  0  0  0  0
   31.8930   37.7630   24.7270   C 0  0  0  0  0  0  0  0  0  0  0  0
  1  2  2  0  0  0  0
  1  6  1  0  0  0  0
  1  7  1  0  0  0  0
  2  3  1  0  0  0  0
  2 21  1  0  0  0  0
  3  4  2  0  0  0  0
  4  5  1  0  0  0  0
  4 22  1  0  0  0  0
  5  6  2  0  0  0  0
  7  8  1  0  0  0  0
  8  9  1  0  0  0  0
  9 10  2  0  0  0  0
  9 14  1  0  0  0  0
 10 11  1  0  0  0  0
 10 23  1  0  0  0  0
 11 12  1  0  0  0  0
 11 24  2  0  0  0  0
 12 13  1  0  0  0  0
 12 15  1  0  0  0  0
 13 14  2  0  0  0  0
 13 25  1  0  0  0  0
 15 16  2  0  0  0  0
 15 20  1  0  0  0  0
 16 17  1  0  0  0  0
 17 18  2  0  0  0  0
 17 26  1  0  0  0  0
 18 19  1  0  0  0  0
 19 20  2  0  0  0  0
 20 30  1  0  0  0  0
 26 27  2  0  0  0  0
 26 28  1  0  0  0  0
 28 29  1  0  0  0  0
M  END
>  <InstanceId>
3HLL_I45_A_401

>  <ChemCompId>
I45

>  <PdbId>
3HLL

>  <ChainId>
A

>  <ResidueNumber>
401

>  <InsertionCode>


>  <Model>
1

>  <AltIds>


>  <MissingHeavyAtoms>
0

>  <ObservedFormula>
C22 N2 O3 Br F2

>  <Name>
3-{3-bromo-4-[(2,4-difluorobenzyl)oxy]-6-methyl-2-oxopyridin-1(2H)-yl}-N,4-dimethylbenzamide

>  <SystematicName>
3-[3-bromo-4-[(2,4-difluorophenyl)methoxy]-6-methyl-2-oxo-pyridin-1-yl]-N,4-dimethyl-benzamide

>  <Synonyms>


>  <Type>
NON-POLYMER

>  <Formula>
C22 H19 Br F2 N2 O3

>  <MolecularWeight>
477.299

>  <ModifiedDate>
2011-06-04

>  <Parent>


>  <OneLetterCode>


>  <SubcomponentList>


>  <AmbiguousFlag>
N

>  <InChI>
InChI=1S/C22H19BrF2N2O3/c1-12-4-5-14(21(28)26-3)9-18(12)27-13(2)8-19(20(23)22(27)29)30-11-15-6-7-16(24)10-17(15)25/h4-10H,11H2,1-3H3,(H,26,28)

>  <InChIKey>
KCAJXIDMCNPGHZ-UHFFFAOYSA-N

>  <SMILES>
Cc1ccc(cc1N2C(=CC(=C(C2=O)Br)OCc3ccc(cc3F)F)C)C(=O)NC

$$$$
