3L0V_724_A_485
  RCSB PDB08012019393D
Coordinates from PDB:3L0V:A:485 Model:1 without hydrogens
 21 23  0  0  0  0            999 V2000
    6.2900    8.8290   23.9920   N 0  0  0  0  0  0  0  0  0  0  0  0
    7.7050    8.7080   24.1490   N 0  0  0  0  0  0  0  0  0  0  0  0
    5.5620    8.8450   25.1420   C 0  0  0  0  0  0  0  0  0  0  0  0
    7.6460   11.7440   23.3250   N 0  0  0  0  0  0  0  0  0  0  0  0
    7.3290   10.9500   22.2400   C 0  0  0  0  0  0  0  0  0  0  0  0
    5.8300   10.5170   22.3130   C 0  0  0  0  0  0  0  0  0  0  0  0
    5.3970   11.3740   23.4450   N 0  0  0  0  0  0  0  0  0  0  0  0
    6.4560   12.0930   24.0150   C 0  0  0  0  0  0  0  0  0  0  0  0
    6.4030   12.9710   24.8730   O 0  0  0  0  0  0  0  0  0  0  0  0
    8.1130   10.5040   21.4200   O 0  0  0  0  0  0  0  0  0  0  0  0
    5.0900   10.8890   21.0080   C 0  0  0  0  0  0  0  0  0  0  0  0
    5.7180    8.9770   22.6910   C 0  0  0  0  0  0  0  0  0  0  0  0
    6.5750    8.7710   26.1830   C 0  0  0  0  0  0  0  0  0  0  0  0
    7.8350    8.6870   25.5340   C 0  0  0  0  0  0  0  0  0  0  0  0
    9.0210    8.5940   26.2540   C 0  0  0  0  0  0  0  0  0  0  0  0
    8.8980    8.6060   27.6310   C 0  0  0  0  0  0  0  0  0  0  0  0
    7.6060    8.6980   28.2670   C 0  0  0  0  0  0  0  0  0  0  0  0
    6.4290    8.7830   27.5240   C 0  0  0  0  0  0  0  0  0  0  0  0
    4.3420    8.9300   25.2740   O 0  0  0  0  0  0  0  0  0  0  0  0
    7.3530    8.7050   29.5950   O 0  0  0  0  0  0  0  0  0  0  0  0
    8.3710    8.2080   30.4920   C 0  0  0  0  0  0  0  0  0  0  0  0
  1  2  1  0  0  0  0
  1  3  1  0  0  0  0
  1 12  1  0  0  0  0
  2 14  1  0  0  0  0
  3 13  1  0  0  0  0
  3 19  2  0  0  0  0
  4  5  1  0  0  0  0
  4  8  1  0  0  0  0
  5  6  1  0  0  0  0
  5 10  2  0  0  0  0
  6  7  1  0  0  0  0
  6 11  1  0  0  0  0
  6 12  1  0  0  0  0
  7  8  1  0  0  0  0
  8  9  2  0  0  0  0
 13 14  2  0  0  0  0
 13 18  1  0  0  0  0
 14 15  1  0  0  0  0
 15 16  2  0  0  0  0
 16 17  1  0  0  0  0
 17 18  2  0  0  0  0
 17 20  1  0  0  0  0
 20 21  1  0  0  0  0
M  END
>  <InstanceId>
3L0V_724_A_485

>  <ChemCompId>
724

>  <PdbId>
3L0V

>  <ChainId>
A

>  <ResidueNumber>
485

>  <InsertionCode>


>  <Model>
1

>  <AltIds>


>  <MissingHeavyAtoms>
0

>  <ObservedFormula>
C13 N4 O4

>  <Name>
(5R)-5-[(5-methoxy-3-oxo-1,3-dihydro-2H-indazol-2-yl)methyl]-5-methylimidazolidine-2,4-dione

>  <SystematicName>
(5R)-5-[(5-methoxy-3-oxo-1H-indazol-2-yl)methyl]-5-methyl-imidazolidine-2,4-dione

>  <Synonyms>
5-[(1,3-DIHYDRO-5-METHOXY-3-OXO-2H-INDAZOL-2-YL)METHYL]-5-METHYL-2,4-IMIDAZOLIDINEDIONE

>  <Type>
NON-POLYMER

>  <Formula>
C13 H14 N4 O4

>  <MolecularWeight>
290.275

>  <ModifiedDate>
2011-06-04

>  <Parent>


>  <OneLetterCode>


>  <SubcomponentList>


>  <AmbiguousFlag>
N

>  <InChI>
InChI=1S/C13H14N4O4/c1-13(11(19)14-12(20)15-13)6-17-10(18)8-5-7(21-2)3-4-9(8)16-17/h3-5,16H,6H2,1-2H3,(H2,14,15,19,20)/t13-/m1/s1

>  <InChIKey>
PIEMRKVLYXWKFP-CYBMUJFWSA-N

>  <SMILES>
C[C@]1(C(=O)NC(=O)N1)CN2C(=O)c3cc(ccc3N2)OC

$$$$
