1HN4_MJI_A_397
  RCSB PDB08012015043D
Coordinates from PDB:1HN4:A:397 Model:1 without hydrogens
 32 31  0  0  0  0            999 V2000
   17.6620   14.6390   11.8510   C 0  0  0  0  0  0  0  0  0  0  0  0
   16.9590   15.7970   12.2200   O 0  0  0  0  0  0  0  0  0  0  0  0
   18.5690   14.9360   10.6840   C 0  0  0  0  0  0  0  0  0  0  0  0
   17.8760   15.7120    9.6740   O 0  0  0  0  0  0  0  0  0  0  0  0
   19.7820   15.7060   11.1580   C 0  0  0  0  0  0  0  0  0  0  0  0
   20.3930   16.3550   10.0710   O 0  0  0  0  0  0  0  0  0  0  0  0
   21.2720   15.5020    9.3740   C 0  0  0  0  0  0  0  0  0  0  0  0
   22.2780   16.2960    8.5760   C 0  0  0  0  0  0  0  0  0  0  0  0
   23.0220   17.1620    9.3250   F 0  0  0  0  0  0  0  0  0  0  0  0
   21.7440   17.0130    7.5610   F 0  0  0  0  0  0  0  0  0  0  0  0
   23.1200   15.4470    8.0230   F 0  0  0  0  0  0  0  0  0  0  0  0
   17.3330   15.0270    8.3220   P 0  0  0  0  0  0  0  0  0  0  0  0
   16.9210   16.1210    7.3690   O 0  0  0  0  0  0  0  0  0  0  0  0
   18.3060   13.9770    7.8640   O 0  0  0  0  0  0  0  0  0  0  0  0
   14.9090   15.0020    9.3820   C 0  0  0  0  0  0  0  0  0  0  0  0
   16.0110   14.2710    8.8210   O 0  0  0  0  0  0  0  0  0  0  0  0
   16.2080   15.5770   13.3760   C 0  0  0  0  0  0  0  0  0  0  0  0
   15.0100   16.5060   13.3670   C 0  0  0  0  0  0  0  0  0  0  0  0
   15.1650   17.5470   14.4680   C 0  0  0  0  0  0  0  0  0  0  0  0
   14.6940   16.9670   15.7980   C 0  0  0  0  0  0  0  0  0  0  0  0
   15.4660   17.6210   16.9300   C 0  0  0  0  0  0  0  0  0  0  0  0
   15.9530   16.5510   17.8950   C 0  0  0  0  0  0  0  0  0  0  0  0
   17.4350   16.7440   18.1550   C 0  0  0  0  0  0  0  0  0  0  0  0
   17.6320   17.6610   19.3530   C 0  0  0  0  0  0  0  0  0  0  0  0
   17.9330   16.8190   20.5840   C 0  0  0  0  0  0  0  0  0  0  0  0
   19.3920   17.0010   20.9750   C 0  0  0  0  0  0  0  0  0  0  0  0
   19.6970   16.1470   22.2010   C 0  0  0  0  0  0  0  0  0  0  0  0
   20.3430   14.8360   21.7700   C 0  0  0  0  0  0  0  0  0  0  0  0
   21.1280   14.2540   22.9380   C 0  0  0  0  0  0  0  0  0  0  0  0
   21.1420   12.7340   22.8470   C 0  0  0  0  0  0  0  0  0  0  0  0
   21.7390   12.1570   24.1270   C 0  0  0  0  0  0  0  0  0  0  0  0
   22.2030   10.7240   23.8760   C 0  0  0  0  0  0  0  0  0  0  0  0
  1  2  1  0  0  0  0
  1  3  1  0  0  0  0
  2 17  1  0  0  0  0
  3  4  1  0  0  0  0
  3  5  1  0  0  0  0
  4 12  1  0  0  0  0
  5  6  1  0  0  0  0
  6  7  1  0  0  0  0
  7  8  1  0  0  0  0
  8  9  1  0  0  0  0
  8 10  1  0  0  0  0
  8 11  1  0  0  0  0
 12 13  2  0  0  0  0
 12 14  1  0  0  0  0
 12 16  1  0  0  0  0
 15 16  1  0  0  0  0
 17 18  1  0  0  0  0
 18 19  1  0  0  0  0
 19 20  1  0  0  0  0
 20 21  1  0  0  0  0
 21 22  1  0  0  0  0
 22 23  1  0  0  0  0
 23 24  1  0  0  0  0
 24 25  1  0  0  0  0
 25 26  1  0  0  0  0
 26 27  1  0  0  0  0
 27 28  1  0  0  0  0
 28 29  1  0  0  0  0
 29 30  1  0  0  0  0
 30 31  1  0  0  0  0
 31 32  1  0  0  0  0
M  END
>  <InstanceId>
1HN4_MJI_A_397

>  <ChemCompId>
MJI

>  <PdbId>
1HN4

>  <ChainId>
A

>  <ResidueNumber>
397

>  <InsertionCode>


>  <Model>
1

>  <AltIds>


>  <MissingHeavyAtoms>
0

>  <ObservedFormula>
C22 O6 P F3

>  <Name>
1-HEXADECYL-3-TRIFLUOROETHYL-SN-GLYCERO-2-PHOSPHATE METHANE

>  <SystematicName>
[(2R)-1-hexadecoxy-3-(2,2,2-trifluoroethoxy)propan-2-yl] methyl hydrogen phosphate

>  <Synonyms>
MJ33 INHIBITOR

>  <Type>
NON-POLYMER

>  <Formula>
C22 H44 F3 O6 P

>  <MolecularWeight>
492.55

>  <ModifiedDate>
2020-06-17

>  <Parent>


>  <OneLetterCode>


>  <SubcomponentList>


>  <AmbiguousFlag>
N

>  <InChI>
InChI=1S/C22H44F3O6P/c1-3-4-5-6-7-8-9-10-11-12-13-14-15-16-17-29-18-21(31-32(26,27)28-2)19-30-20-22(23,24)25/h21H,3-20H2,1-2H3,(H,26,27)/t21-/m1/s1

>  <InChIKey>
XPTFBVFCGHXMRK-OAQYLSRUSA-N

>  <SMILES>
CCCCCCCCCCCCCCCCOC[C@H](COCC(F)(F)F)O[P@](=O)(O)OC

$$$$
