4LOV_KGM_A_201
  RCSB PDB08012022253D
Coordinates from PDB:4LOV:A:201 Model:1 without hydrogens
 19 19  0  0  0  0            999 V2000
    8.6150   -6.9900  -33.6660   O 0  0  0  0  0  0  0  0  0  0  0  0
    8.7840   -7.5860  -34.9610   C 0  0  0  0  0  0  0  0  0  0  0  0
   10.2670   -7.4120  -35.4070   C 0  0  0  0  0  0  0  0  0  0  0  0
   10.7760   -6.8110  -41.8900   C 0  0  0  0  0  0  0  0  0  0  0  0
   10.4490   -5.9890  -35.5410   O 0  0  0  0  0  0  0  0  0  0  0  0
   11.2840   -8.0580  -34.4050   C 0  0  0  0  0  0  0  0  0  0  0  0
   11.1130   -9.4450  -34.4480   O 0  0  0  0  0  0  0  0  0  0  0  0
   12.6970   -7.6680  -34.8770   C 0  0  0  0  0  0  0  0  0  0  0  0
   13.6700   -8.1030  -33.9580   O 0  0  0  0  0  0  0  0  0  0  0  0
   12.8690   -6.0950  -34.9830   C 0  0  0  0  0  0  0  0  0  0  0  0
   12.7070   -5.4770  -33.7200   O 0  0  0  0  0  0  0  0  0  0  0  0
   11.7790   -5.5210  -35.9430   C 0  0  0  0  0  0  0  0  0  0  0  0
   11.9270   -5.9530  -37.2750   O 0  0  0  0  0  0  0  0  0  0  0  0
   11.0660   -5.4480  -38.3320   C 0  0  0  0  0  0  0  0  0  0  0  0
   11.3970   -6.3840  -39.5210   C 0  0  0  0  0  0  0  0  0  0  0  0
   10.5440   -6.1630  -40.7280   C 0  0  0  0  0  0  0  0  0  0  0  0
    9.1460   -7.0160  -45.4010   C 0  0  0  0  0  0  0  0  0  0  0  0
   10.1420   -7.3880  -44.2780   C 0  0  0  0  0  0  0  0  0  0  0  0
    9.9210   -6.4950  -43.0940   C 0  0  0  0  0  0  0  0  0  0  0  0
 17 18  1  0  0  0  0
 18 19  1  0  0  0  0
 19  4  1  0  0  0  0
  4 16  1  0  0  0  0
 16 15  1  0  0  0  0
 15 14  1  0  0  0  0
 14 13  1  0  0  0  0
 13 12  1  0  0  0  0
 12 10  1  0  0  0  0
 12  5  1  0  0  0  0
 10 11  1  0  0  0  0
 10  8  1  0  0  0  0
  8  9  1  0  0  0  0
  8  6  1  0  0  0  0
  6  7  1  0  0  0  0
  6  3  1  0  0  0  0
  3  5  1  0  0  0  0
  3  2  1  0  0  0  0
  2  1  1  0  0  0  0
M  END
>  <InstanceId>
4LOV_KGM_A_201

>  <ChemCompId>
KGM

>  <PdbId>
4LOV

>  <ChainId>
A

>  <ResidueNumber>
201

>  <InsertionCode>


>  <Model>
1

>  <AltIds>


>  <MissingHeavyAtoms>
0

>  <ObservedFormula>
C13 O6

>  <Name>
heptyl alpha-D-mannopyranoside

>  <SystematicName>
(2S,3S,4S,5S,6R)-2-heptoxy-6-(hydroxymethyl)oxane-3,4,5-triol

>  <Synonyms>
Heptyl Alpha-D-mannopyrannoside; heptyl alpha-D-mannoside; heptyl D-mannoside; heptyl mannoside

>  <Type>
D-saccharide

>  <Formula>
C13 H26 O6

>  <MolecularWeight>
278.342

>  <ModifiedDate>
2020-07-17

>  <Parent>
MAN

>  <OneLetterCode>


>  <SubcomponentList>


>  <AmbiguousFlag>
N

>  <InChI>
InChI=1S/C13H26O6/c1-2-3-4-5-6-7-18-13-12(17)11(16)10(15)9(8-14)19-13/h9-17H,2-8H2,1H3/t9-,10-,11+,12+,13+/m1/s1

>  <InChIKey>
NIDYWHLDTIVRJT-BNDIWNMDSA-N

>  <SMILES>
CCCCCCCO[C@@H]1[C@H]([C@H]([C@@H]([C@H](O1)CO)O)O)O

$$$$
