4PVX_YS1_F_404
  RCSB PDB08012022563D
Coordinates from PDB:4PVX:F:404 Model:1 without hydrogens
 26 28  0  0  0  0            999 V2000
   16.3520   32.7090  -10.4890   O 0  0  0  0  0  0  0  0  0  0  0  0
   16.5760   34.0130   -9.6110   P 0  0  0  0  0  0  0  0  0  0  0  0
   17.9430   33.8720   -8.9110   O 0  0  0  0  0  0  0  0  0  0  0  0
   16.3400   35.2390  -10.4000   O 0  0  0  0  0  0  0  0  0  0  0  0
   15.3030   34.0550   -8.2760   C 0  0  0  0  0  0  0  0  0  0  0  0
   15.4300   35.6200   -7.3480   P 0  0  0  0  0  0  0  0  0  0  0  0
   14.3440   35.5080   -6.2540   O 0  0  0  0  0  0  0  0  0  0  0  0
   16.7520   35.6640   -6.6300   O 0  0  0  0  0  0  0  0  0  0  0  0
   15.1940   36.7100   -8.3070   O 0  0  0  0  0  0  0  0  0  0  0  0
   15.4890   32.9500   -7.3180   N 0  0  0  0  0  0  0  0  0  0  0  0
   15.2330   31.6740   -7.7050   C 0  0  0  0  0  0  0  0  0  0  0  0
   16.0480   30.6780   -7.1610   C 0  0  0  0  0  0  0  0  0  0  0  0
   14.2560   31.3790   -8.6420   N 0  0  0  0  0  0  0  0  0  0  0  0
   14.1200   29.9990   -8.9800   C 0  0  0  0  0  0  0  0  0  0  0  0
   14.9410   28.9830   -8.4170   C 0  0  0  0  0  0  0  0  0  0  0  0
   15.9290   29.2980   -7.4860   C 0  0  0  0  0  0  0  0  0  0  0  0
   16.8100   28.3180   -6.9440   C 0  0  0  0  0  0  0  0  0  0  0  0
   16.4870   27.0030   -6.6920   C 0  0  0  0  0  0  0  0  0  0  0  0
   17.3660   26.0450   -6.1980   C 0  0  0  0  0  0  0  0  0  0  0  0
   18.1300   28.6240   -6.7150   C 0  0  0  0  0  0  0  0  0  0  0  0
   19.0230   27.6820   -6.2110   C 0  0  0  0  0  0  0  0  0  0  0  0
   18.6520   26.3800   -5.9210   C 0  0  0  0  0  0  0  0  0  0  0  0
   19.6060   25.4910   -5.5000   O 0  0  0  0  0  0  0  0  0  0  0  0
   19.2630   24.2760   -4.8240   C 0  0  0  0  0  0  0  0  0  0  0  0
   20.2520   23.6300   -4.0490   C 0  0  0  0  0  0  0  0  0  0  0  0
   19.6770   24.8610   -3.5900   C 0  0  0  0  0  0  0  0  0  0  0  0
  1  2  2  0  0  0  0
  4  2  1  0  0  0  0
  2  3  1  0  0  0  0
  2  5  1  0  0  0  0
 14 13  2  0  0  0  0
 14 15  1  0  0  0  0
 13 11  1  0  0  0  0
 15 16  2  0  0  0  0
  9  6  2  0  0  0  0
  5  6  1  0  0  0  0
  5 10  1  0  0  0  0
 11 10  1  0  0  0  0
 11 12  2  0  0  0  0
 16 12  1  0  0  0  0
 16 17  1  0  0  0  0
  6  8  1  0  0  0  0
  6  7  1  0  0  0  0
 17 20  2  0  0  0  0
 17 18  1  0  0  0  0
 20 21  1  0  0  0  0
 18 19  2  0  0  0  0
 21 22  2  0  0  0  0
 19 22  1  0  0  0  0
 22 23  1  0  0  0  0
 23 24  1  0  0  0  0
 24 25  1  0  0  0  0
 24 26  1  0  0  0  0
 25 26  1  0  0  0  0
M  END
>  <InstanceId>
4PVX_YS1_F_404

>  <ChemCompId>
YS1

>  <PdbId>
4PVX

>  <ChainId>
F

>  <ResidueNumber>
404

>  <InsertionCode>


>  <Model>
1

>  <AltIds>


>  <MissingHeavyAtoms>
0

>  <ObservedFormula>
C15 N2 O7 P2

>  <Name>
[({4-[4-(cyclopropyloxy)phenyl]pyridin-2-yl}amino)methanediyl]bis(phosphonic acid)

>  <SystematicName>
[[[4-(4-cyclopropyloxyphenyl)pyridin-2-yl]amino]-phosphono-methyl]phosphonic acid

>  <Synonyms>


>  <Type>
NON-POLYMER

>  <Formula>
C15 H18 N2 O7 P2

>  <MolecularWeight>
400.26

>  <ModifiedDate>
2015-04-10

>  <Parent>


>  <OneLetterCode>


>  <SubcomponentList>


>  <AmbiguousFlag>
N

>  <InChI>
InChI=1S/C15H18N2O7P2/c18-25(19,20)15(26(21,22)23)17-14-9-11(7-8-16-14)10-1-3-12(4-2-10)24-13-5-6-13/h1-4,7-9,13,15H,5-6H2,(H,16,17)(H2,18,19,20)(H2,21,22,23)

>  <InChIKey>
MYPRZOLXSMRMEV-UHFFFAOYSA-N

>  <SMILES>
c1cc(ccc1c2ccnc(c2)NC(P(=O)(O)O)P(=O)(O)O)OC3CC3

$$$$
