6GUH_FB8_A_301
  RCSB PDB08022004523D
Coordinates from PDB:6GUH:A:301 Model:1 without hydrogens
 26 28  0  0  0  0            999 V2000
   -1.5590   -5.7250  -26.6670   C 0  0  0  0  0  0  0  0  0  0  0  0
    3.4520   -9.0920  -27.6430   C 0  0  0  0  0  0  0  0  0  0  0  0
   -0.5450   -5.1420  -27.5290   C 0  0  0  0  0  0  0  0  0  0  0  0
   -0.5790   -3.7740  -27.8020   C 0  0  0  0  0  0  0  0  0  0  0  0
    4.6250   -8.8880  -29.7140   C 0  0  0  0  0  0  0  0  0  0  0  0
    0.4720   -3.2850  -28.5530   C 0  0  0  0  0  0  0  0  0  0  0  0
    1.3510   -5.3730  -28.8230   C 0  0  0  0  0  0  0  0  0  0  0  0
    2.9900   -7.2340  -29.1050   C 0  0  0  0  0  0  0  0  0  0  0  0
    3.9750   -7.7010  -29.9610   C 0  0  0  0  0  0  0  0  0  0  0  0
    4.3870   -9.5510  -28.5380   C 0  0  0  0  0  0  0  0  0  0  0  0
    5.9920  -11.5330  -29.6910   C 0  0  0  0  0  0  0  0  0  0  0  0
   -3.5280   -6.0890  -25.6260   N 0  0  0  0  0  0  0  0  0  0  0  0
    1.3940   -4.0620  -29.1270   N 0  0  0  0  0  0  0  0  0  0  0  0
   -2.8300   -5.2680  -26.4740   C 0  0  0  0  0  0  0  0  0  0  0  0
    2.3730   -6.0140  -29.4260   N 0  0  0  0  0  0  0  0  0  0  0  0
   -3.0190   -8.1490  -24.3230   C 0  0  0  0  0  0  0  0  0  0  0  0
   -2.6810   -7.0360  -25.2610   C 0  0  0  0  0  0  0  0  0  0  0  0
    5.3050  -11.0090  -28.1800   S 0  0  0  0  0  0  0  0  0  0  0  0
    6.4390  -10.5820  -27.3880   O 0  0  0  0  0  0  0  0  0  0  0  0
    4.3560  -11.9550  -27.6670   O 0  0  0  0  0  0  0  0  0  0  0  0
    2.7460   -7.9430  -27.9220   C 0  0  0  0  0  0  0  0  0  0  0  0
    0.4170   -5.9440  -28.0270   N 0  0  0  0  0  0  0  0  0  0  0  0
   -1.4610   -6.9200  -25.9080   N 0  0  0  0  0  0  0  0  0  0  0  0
   -0.2660   -7.7030  -25.7170   C 0  0  0  0  0  0  0  0  0  0  0  0
    0.1410   -7.6110  -24.2260   C 0  0  0  0  0  0  0  0  0  0  0  0
   -0.4770   -9.0690  -26.2870   C 0  0  0  0  0  0  0  0  0  0  0  0
 19 18  2  0  0  0  0
 11 18  1  0  0  0  0
 18 20  2  0  0  0  0
 18 10  1  0  0  0  0
  2 10  2  0  0  0  0
  2 21  1  0  0  0  0
 10  5  1  0  0  0  0
 21  8  2  0  0  0  0
  5  9  2  0  0  0  0
  8  9  1  0  0  0  0
  8 15  1  0  0  0  0
 15  7  1  0  0  0  0
 26 24  1  0  0  0  0
  7 13  2  0  0  0  0
  7 22  1  0  0  0  0
 13  6  1  0  0  0  0
 22  3  2  0  0  0  0
 24 25  1  0  0  0  0
 24 23  1  0  0  0  0
  6  4  2  0  0  0  0
  3  4  1  0  0  0  0
  3  1  1  0  0  0  0
 23  1  1  0  0  0  0
 23 17  1  0  0  0  0
  1 14  2  0  0  0  0
 17 16  1  0  0  0  0
 17 12  2  0  0  0  0
 14 12  1  0  0  0  0
M  END
>  <InstanceId>
6GUH_FB8_A_301

>  <ChemCompId>
FB8

>  <PdbId>
6GUH

>  <ChainId>
A

>  <ResidueNumber>
301

>  <InsertionCode>


>  <Model>
1

>  <AltIds>


>  <MissingHeavyAtoms>
0

>  <ObservedFormula>
C18 N5 O2 S

>  <Name>
4-(2-methyl-3-propan-2-yl-imidazol-4-yl)-~{N}-(4-methylsulfonylphenyl)pyrimidin-2-amine

>  <SystematicName>
4-(2-methyl-3-propan-2-yl-imidazol-4-yl)-~{N}-(4-methylsulfonylphenyl)pyrimidin-2-amine

>  <Synonyms>


>  <Type>
NON-POLYMER

>  <Formula>
C18 H21 N5 O2 S

>  <MolecularWeight>
371.457

>  <ModifiedDate>
2018-11-30

>  <Parent>


>  <OneLetterCode>


>  <SubcomponentList>


>  <AmbiguousFlag>
N

>  <InChI>
InChI=1S/C18H21N5O2S/c1-12(2)23-13(3)20-11-17(23)16-9-10-19-18(22-16)21-14-5-7-15(8-6-14)26(4,24)25/h5-12H,1-4H3,(H,19,21,22)

>  <InChIKey>
WJRRGYBTGDJBFX-UHFFFAOYSA-N

>  <SMILES>
Cc1ncc(n1C(C)C)c2ccnc(n2)Nc3ccc(cc3)S(=O)(=O)C

$$$$
