5IHH_6B5_A_201
  RCSB PDB08022001443D
Coordinates from PDB:5IHH:A:201 Model:1 without hydrogens
 22 24  0  0  0  0            999 V2000
   21.7960  -10.0760    1.1400   C 0  0  0  0  0  0  0  0  0  0  0  0
   20.0520   -3.4640   -1.1670   O 0  0  0  0  0  0  0  0  0  0  0  0
   20.7990   -4.2210   -0.5900   C 0  0  0  0  0  0  0  0  0  0  0  0
   21.9550   -3.7030    0.2120   C 0  0  0  0  0  0  0  0  0  0  0  0
   22.7840   -4.6320    0.8570   C 0  0  0  0  0  0  0  0  0  0  0  0
   22.5480   -6.0040    0.7600   O 0  0  0  0  0  0  0  0  0  0  0  0
   21.4260   -6.4980    0.0640   C 0  0  0  0  0  0  0  0  0  0  0  0
   20.6180   -5.6860   -0.6470   C 0  0  0  0  0  0  0  0  0  0  0  0
   21.4210   -7.9610    0.0390   C 0  0  0  0  0  0  0  0  0  0  0  0
   21.7900   -8.6740    1.1660   C 0  0  0  0  0  0  0  0  0  0  0  0
   21.4330  -10.7490   -0.0230   C 0  0  0  0  0  0  0  0  0  0  0  0
   21.4450  -12.1000   -0.0290   O 0  0  0  0  0  0  0  0  0  0  0  0
   21.0650  -10.0240   -1.1700   C 0  0  0  0  0  0  0  0  0  0  0  0
   20.7070  -10.6900   -2.3210   O 0  0  0  0  0  0  0  0  0  0  0  0
   21.0620   -8.6410   -1.1380   C 0  0  0  0  0  0  0  0  0  0  0  0
   23.8670   -4.2020    1.6020   C 0  0  0  0  0  0  0  0  0  0  0  0
   24.1460   -2.8640    1.7310   C 0  0  0  0  0  0  0  0  0  0  0  0
   25.2360   -2.4520    2.4800   O 0  0  0  0  0  0  0  0  0  0  0  0
   25.9750   -1.3100    2.0520   C 0  0  0  0  0  0  0  0  0  0  0  0
   23.3520   -1.9270    1.1060   C 0  0  0  0  0  0  0  0  0  0  0  0
   22.2660   -2.3300    0.3520   C 0  0  0  0  0  0  0  0  0  0  0  0
   21.4880   -1.3980   -0.2420   O 0  0  0  0  0  0  0  0  0  0  0  0
 14 13  1  0  0  0  0
 13 15  2  0  0  0  0
 13 11  1  0  0  0  0
  2  3  2  0  0  0  0
 15  9  1  0  0  0  0
  8  3  1  0  0  0  0
  8  7  2  0  0  0  0
  3  4  1  0  0  0  0
 22 21  1  0  0  0  0
 12 11  1  0  0  0  0
 11  1  2  0  0  0  0
  9  7  1  0  0  0  0
  9 10  2  0  0  0  0
  7  6  1  0  0  0  0
  4 21  2  0  0  0  0
  4  5  1  0  0  0  0
 21 20  1  0  0  0  0
  6  5  1  0  0  0  0
  5 16  2  0  0  0  0
 20 17  2  0  0  0  0
  1 10  1  0  0  0  0
 16 17  1  0  0  0  0
 17 18  1  0  0  0  0
 19 18  1  0  0  0  0
M  END
>  <InstanceId>
5IHH_6B5_A_201

>  <ChemCompId>
6B5

>  <PdbId>
5IHH

>  <ChainId>
A

>  <ResidueNumber>
201

>  <InsertionCode>


>  <Model>
1

>  <AltIds>


>  <MissingHeavyAtoms>
0

>  <ObservedFormula>
C16 O6

>  <Name>
2-(3,4-dihydroxyphenyl)-5-hydroxy-7-methoxy-4H-1-chromen-4-one

>  <SystematicName>
2-[3,4-bis(oxidanyl)phenyl]-7-methoxy-5-oxidanyl-chromen-4-one

>  <Synonyms>
7,8-DIMETHYLALLOXAZINE; 6,7-DIMETHYLALLOXAZINE

>  <Type>
NON-POLYMER

>  <Formula>
C16 H12 O6

>  <MolecularWeight>
300.263

>  <ModifiedDate>
2020-06-17

>  <Parent>


>  <OneLetterCode>


>  <SubcomponentList>


>  <AmbiguousFlag>
N

>  <InChI>
InChI=1S/C16H12O6/c1-21-9-5-12(19)16-13(20)7-14(22-15(16)6-9)8-2-3-10(17)11(18)4-8/h2-7,17-19H,1H3

>  <InChIKey>
RRRSSAVLTCVNIQ-UHFFFAOYSA-N

>  <SMILES>
COc1cc(c2c(c1)OC(=CC2=O)c3ccc(c(c3)O)O)O

$$$$
