3MYQ_E27_A_266
  RCSB PDB08012019513D
Coordinates from PDB:3MYQ:A:266 Model:1 without hydrogens
 28 31  0  0  0  0            999 V2000
   -2.2320    5.5460   11.5400   N 0  0  0  0  0  0  0  0  0  0  0  0
   -1.9320    4.9120   10.3970   C 0  0  0  0  0  0  0  0  0  0  0  0
   -0.7730    5.3550    9.8940   N 0  0  0  0  0  0  0  0  0  0  0  0
   -0.3410    6.2780   10.7350   C 0  0  0  0  0  0  0  0  0  0  0  0
    0.8050    7.0570   10.7040   C 0  0  0  0  0  0  0  0  0  0  0  0
    0.9930    7.9250   11.7020   N 0  0  0  0  0  0  0  0  0  0  0  0
    0.1240    8.0630   12.7130   C 0  0  0  0  0  0  0  0  0  0  0  0
   -1.0370    7.2950   12.7750   C 0  0  0  0  0  0  0  0  0  0  0  0
   -1.2440    6.3940   11.7490   C 0  0  0  0  0  0  0  0  0  0  0  0
    0.3770    8.9840   13.7230   C 0  0  0  0  0  0  0  0  0  0  0  0
   -0.5220    9.1320   14.7740   C 0  0  0  0  0  0  0  0  0  0  0  0
   -1.6780    8.3590   14.8250   C 0  0  0  0  0  0  0  0  0  0  0  0
   -1.9400    7.4340   13.8200   C 0  0  0  0  0  0  0  0  0  0  0  0
   -2.9730    3.6670    9.6880   S 0  0  0  0  0  0  0  0  0  0  0  0
   -4.3340    3.4550   10.8620   C 0  0  0  0  0  0  0  0  0  0  0  0
   -3.9840    2.6700   12.1880   C 0  0  0  0  0  0  0  0  0  0  0  0
   -3.1280    1.7230   12.2400   O 0  0  0  0  0  0  0  0  0  0  0  0
   -4.6460    2.9280   13.5660   C 0  0  0  0  0  0  0  0  0  0  0  0
   -4.9210    1.8980   14.4420   C 0  0  0  0  0  0  0  0  0  0  0  0
   -5.5230    2.1270   15.6300   C 0  0  0  0  0  0  0  0  0  0  0  0
   -5.9370    3.4030   15.9370   C 0  0  0  0  0  0  0  0  0  0  0  0
   -5.7190    4.4710   15.0750   C 0  0  0  0  0  0  0  0  0  0  0  0
   -5.1000    4.1950   13.9030   C 0  0  0  0  0  0  0  0  0  0  0  0
   -5.9460    0.8020   16.7410   S 0  0  0  0  0  0  0  0  0  0  0  0
   -7.4330    0.7740   16.7380   O 0  0  0  0  0  0  0  0  0  0  0  0
   -6.7760    3.8310   17.4050  Cl 0  0  0  0  0  0  0  0  0  0  0  0
   -5.3100    1.1070   18.0230   O 0  0  0  0  0  0  0  0  0  0  0  0
   -5.3740   -0.5550   16.0470   N 0  0  0  0  0  0  0  0  0  0  0  0
  2  1  1  0  0  0  0
  1  9  1  0  0  0  0
 14  2  1  0  0  0  0
  3  2  2  0  0  0  0
  3  4  1  0  0  0  0
  5  4  2  0  0  0  0
  4  9  1  0  0  0  0
  5  6  1  0  0  0  0
  6  7  2  0  0  0  0
  7  8  1  0  0  0  0
  7 10  1  0  0  0  0
  9  8  2  0  0  0  0
  8 13  1  0  0  0  0
 10 11  2  0  0  0  0
 11 12  1  0  0  0  0
 13 12  2  0  0  0  0
 14 15  1  0  0  0  0
 15 16  1  0  0  0  0
 16 17  2  0  0  0  0
 16 18  1  0  0  0  0
 18 23  2  0  0  0  0
 18 19  1  0  0  0  0
 19 20  2  0  0  0  0
 20 21  1  0  0  0  0
 20 24  1  0  0  0  0
 22 21  2  0  0  0  0
 21 26  1  0  0  0  0
 23 22  1  0  0  0  0
 28 24  1  0  0  0  0
 25 24  2  0  0  0  0
 24 27  2  0  0  0  0
M  END
>  <InstanceId>
3MYQ_E27_A_266

>  <ChemCompId>
E27

>  <PdbId>
3MYQ

>  <ChainId>
A

>  <ResidueNumber>
266

>  <InsertionCode>


>  <Model>
1

>  <AltIds>


>  <MissingHeavyAtoms>
0

>  <ObservedFormula>
C18 N4 O3 S2 Cl

>  <Name>
2-chloro-5-[(1H-imidazo[4,5-c]quinolin-2-ylsulfanyl)acetyl]benzenesulfonamide

>  <SystematicName>
2-chloro-5-[2-(1H-imidazo[4,5-c]quinolin-2-ylsulfanyl)ethanoyl]benzenesulfonamide

>  <Synonyms>


>  <Type>
NON-POLYMER

>  <Formula>
C18 H13 Cl N4 O3 S2

>  <MolecularWeight>
432.904

>  <ModifiedDate>
2011-06-04

>  <Parent>


>  <OneLetterCode>


>  <SubcomponentList>


>  <AmbiguousFlag>
N

>  <InChI>
InChI=1S/C18H13ClN4O3S2/c19-12-6-5-10(7-16(12)28(20,25)26)15(24)9-27-18-22-14-8-21-13-4-2-1-3-11(13)17(14)23-18/h1-8H,9H2,(H,22,23)(H2,20,25,26)

>  <InChIKey>
APUFNRAMLCSAKF-UHFFFAOYSA-N

>  <SMILES>
c1ccc2c(c1)c3c(cn2)nc([nH]3)SCC(=O)c4ccc(c(c4)S(=O)(=O)N)Cl

$$$$
