4DA5_0H7_A_502
  RCSB PDB08012021283D
Coordinates from PDB:4DA5:A:502 Model:1 without hydrogens
 22 25  0  0  0  0            999 V2000
  -10.2100  -12.7890    7.1080   O 0  0  0  0  0  0  0  0  0  0  0  0
  -10.8920  -13.9480    6.6050   C 0  0  0  0  0  0  0  0  0  0  0  0
  -10.8120  -14.0220    5.0430   C 0  0  0  0  0  0  0  0  0  0  0  0
  -11.2320  -12.6860    4.4020   C 0  0  0  0  0  0  0  0  0  0  0  0
  -10.1060  -12.1440    3.6070   N 0  0  0  0  0  0  0  0  0  0  0  0
   -8.9150  -11.9230    4.4600   C 0  0  0  0  0  0  0  0  0  0  0  0
   -8.3790  -13.2850    4.9510   C 0  0  0  0  0  0  0  0  0  0  0  0
   -9.3740  -14.3930    4.5360   C 0  0  0  0  0  0  0  0  0  0  0  0
   -9.3990  -14.4350    2.9930   C 0  0  0  0  0  0  0  0  0  0  0  0
   -9.7750  -13.0310    2.4680   C 0  0  0  0  0  0  0  0  0  0  0  0
  -10.3080  -15.1820    7.1840   C 0  0  0  0  0  0  0  0  0  0  0  0
  -10.5590  -16.4160    6.7440   C 0  0  0  0  0  0  0  0  0  0  0  0
   -9.9680  -17.4180    7.4730   C 0  0  0  0  0  0  0  0  0  0  0  0
   -9.3000  -17.0010    8.5380   C 0  0  0  0  0  0  0  0  0  0  0  0
   -8.4790  -18.0310    9.6440  Cl 0  0  0  0  0  0  0  0  0  0  0  0
   -9.3540  -15.2490    8.6460   S 0  0  0  0  0  0  0  0  0  0  0  0
  -12.3220  -13.9020    7.1000   C 0  0  0  0  0  0  0  0  0  0  0  0
  -12.7100  -13.4440    8.2990   C 0  0  0  0  0  0  0  0  0  0  0  0
  -14.0670  -13.5230    8.5470   C 0  0  0  0  0  0  0  0  0  0  0  0
  -14.7770  -14.1210    7.5830   C 0  0  0  0  0  0  0  0  0  0  0  0
  -16.5060  -14.3680    7.5850  Cl 0  0  0  0  0  0  0  0  0  0  0  0
  -13.7050  -14.5880    6.2740   S 0  0  0  0  0  0  0  0  0  0  0  0
 21 20  1  0  0  0  0
 19 20  2  0  0  0  0
 19 18  1  0  0  0  0
 20 22  1  0  0  0  0
 18 17  2  0  0  0  0
 22 17  1  0  0  0  0
 17  2  1  0  0  0  0
 16 14  1  0  0  0  0
 16 11  1  0  0  0  0
 15 14  1  0  0  0  0
  1  2  1  0  0  0  0
 14 13  2  0  0  0  0
  2 11  1  0  0  0  0
  2  3  1  0  0  0  0
 11 12  2  0  0  0  0
 13 12  1  0  0  0  0
  4  3  1  0  0  0  0
  4  5  1  0  0  0  0
  3  8  1  0  0  0  0
  6  5  1  0  0  0  0
  6  7  1  0  0  0  0
  5 10  1  0  0  0  0
  7  8  1  0  0  0  0
  8  9  1  0  0  0  0
 10  9  1  0  0  0  0
M  END
>  <InstanceId>
4DA5_0H7_A_502

>  <ChemCompId>
0H7

>  <PdbId>
4DA5

>  <ChainId>
A

>  <ResidueNumber>
502

>  <InsertionCode>


>  <Model>
1

>  <AltIds>


>  <MissingHeavyAtoms>
0

>  <ObservedFormula>
C16 N O S2 Cl2

>  <Name>
(3R)-1-azabicyclo[2.2.2]oct-3-yl[bis(5-chlorothiophen-2-yl)]methanol

>  <SystematicName>
[(3R)-1-azabicyclo[2.2.2]octan-3-yl]-bis(5-chloranylthiophen-2-yl)methanol

>  <Synonyms>


>  <Type>
NON-POLYMER

>  <Formula>
C16 H17 Cl2 N O S2

>  <MolecularWeight>
374.348

>  <ModifiedDate>
2013-04-12

>  <Parent>


>  <OneLetterCode>


>  <SubcomponentList>


>  <AmbiguousFlag>
N

>  <InChI>
InChI=1S/C16H17Cl2NOS2/c17-14-3-1-12(21-14)16(20,13-2-4-15(18)22-13)11-9-19-7-5-10(11)6-8-19/h1-4,10-11,20H,5-9H2/t11-/m0/s1

>  <InChIKey>
ZDHSJVXBNDEQSR-NSHDSACASA-N

>  <SMILES>
c1cc(sc1C(c2ccc(s2)Cl)([C@H]3CN4CCC3CC4)O)Cl

$$$$
