1PPK_IVV_E_700
  RCSB PDB08012015443D
Coordinates from PDB:1PPK:E:700 Model:1 without hydrogens
 35 34  0  0  0  0            999 V2000
   15.8930    4.2760   17.6750   C 0  0  0  0  0  0  0  0  0  0  0  0
   14.6850    3.7270   18.3960   C 0  0  0  0  0  0  0  0  0  0  0  0
   13.4810    3.5480   17.4890   C 0  0  0  0  0  0  0  0  0  0  0  0
   14.2890    4.9130   19.2440   C 0  0  0  0  0  0  0  0  0  0  0  0
   17.0470    4.5420   18.6790   C 0  0  0  0  0  0  0  0  0  0  0  0
   17.1330    3.7770   19.6530   O 0  0  0  0  0  0  0  0  0  0  0  0
   17.8940    5.5230   18.4500   N 0  0  0  0  0  0  0  0  0  0  0  0
   19.0350    5.6660   19.4260   C 0  0  0  0  0  0  0  0  0  0  0  0
   18.9010    6.9930   20.1440   C 0  0  0  0  0  0  0  0  0  0  0  0
   18.1120    7.8900   19.6950   O 0  0  0  0  0  0  0  0  0  0  0  0
   20.3170    5.6050   18.5680   C 0  0  0  0  0  0  0  0  0  0  0  0
   20.3710    4.2270   17.8660   C 0  0  0  0  0  0  0  0  0  0  0  0
   20.2470    6.6320   17.4280   C 0  0  0  0  0  0  0  0  0  0  0  0
   19.7610    7.1140   21.1610   N 0  0  0  0  0  0  0  0  0  0  0  0
   19.8050    8.3850   21.8980   C 0  0  0  0  0  0  0  0  0  0  0  0
   21.3340    8.7140   22.0180   C 0  0  0  0  0  0  0  0  0  0  0  0
   21.9430    8.2540   22.9760   O 0  0  0  0  0  0  0  0  0  0  0  0
   19.1490    8.3320   23.2880   C 0  0  0  0  0  0  0  0  0  0  0  0
   19.1270    9.7510   23.8990   C 0  0  0  0  0  0  0  0  0  0  0  0
   17.7290    7.8730   23.2040   C 0  0  0  0  0  0  0  0  0  0  0  0
   21.8380    9.4640   21.0120   N 0  0  0  0  0  0  0  0  0  0  0  0
   24.0020   10.8590   24.3690   O 0  0  0  0  0  0  0  0  0  0  0  0
   23.2870   11.6820   21.2020   P 0  0  0  0  0  0  0  0  0  0  0  0
   23.6070   11.9730   23.9730   C 0  0  0  0  0  0  0  0  0  0  0  0
   25.4700   12.9130   25.2580   C 0  0  0  0  0  0  0  0  0  0  0  0
   24.3280   13.1020   24.4460   O 0  0  0  0  0  0  0  0  0  0  0  0
   26.5940   13.7920   24.7560   C 0  0  0  0  0  0  0  0  0  0  0  0
   23.2210    9.8740   20.9950   C 0  0  0  0  0  0  0  0  0  0  0  0
   23.8860    9.3780   19.6540   C 0  0  0  0  0  0  0  0  0  0  0  0
   23.7080    7.8240   19.4250   C 0  0  0  0  0  0  0  0  0  0  0  0
   22.6230   12.0970   22.8160   C 0  0  0  0  0  0  0  0  0  0  0  0
   22.4380   12.2440   20.1120   O 0  0  0  0  0  0  0  0  0  0  0  0
   24.7330   12.0620   21.0820   O 0  0  0  0  0  0  0  0  0  0  0  0
   24.3160    7.5100   18.0670   C 0  0  0  0  0  0  0  0  0  0  0  0
   24.2960    6.9500   20.5220   C 0  0  0  0  0  0  0  0  0  0  0  0
 32 23  2  0  0  0  0
 28 23  1  0  0  0  0
 33 23  1  0  0  0  0
 23 31  1  0  0  0  0
  1  5  1  0  0  0  0
  7  5  1  0  0  0  0
  5  6  2  0  0  0  0
  7  8  1  0  0  0  0
  8  9  1  0  0  0  0
 10  9  2  0  0  0  0
  9 14  1  0  0  0  0
 21 16  1  0  0  0  0
 15 16  1  0  0  0  0
 16 17  2  0  0  0  0
 14 15  1  0  0  0  0
 28 21  1  0  0  0  0
 24 22  2  0  0  0  0
 31 24  1  0  0  0  0
 24 26  1  0  0  0  0
 26 25  1  0  0  0  0
 27 25  1  0  0  0  0
  2  3  1  0  0  0  0
 12 11  1  0  0  0  0
 18 19  1  0  0  0  0
 34 30  1  0  0  0  0
  4  2  1  0  0  0  0
 13 11  1  0  0  0  0
 20 18  1  0  0  0  0
 30 35  1  0  0  0  0
  1  2  1  0  0  0  0
 11  8  1  0  0  0  0
 15 18  1  0  0  0  0
 29 28  1  0  0  0  0
 30 29  1  0  0  0  0
M  END
>  <InstanceId>
1PPK_IVV_E_700

>  <ChemCompId>
IVV

>  <PdbId>
1PPK

>  <ChainId>
E

>  <ResidueNumber>
700

>  <InsertionCode>


>  <Model>
1

>  <AltIds>


>  <MissingHeavyAtoms>
0

>  <ObservedFormula>
C24 N3 O7 P

>  <Name>
N-(3-methylbutanoyl)-L-valyl-N-{(1R)-1-[(R)-(2-ethoxy-2-oxoethyl)(hydroxy)phosphoryl]-3-methylbutyl}-L-valinamide

>  <SystematicName>
(2-ethoxy-2-oxo-ethyl)-[(1R)-3-methyl-1-[[(2S)-3-methyl-2-[[(2S)-3-methyl-2-(3-methylbutanoylamino)butanoyl]amino]butanoyl]amino]butyl]phosphinic acid

>  <Synonyms>
PHOSPHINIC ACID ANALOGUE OF STATIN (IVA)-VAL-VAL-STA(P)-O-ET

>  <Type>
PEPTIDE-LIKE

>  <Formula>
C24 H46 N3 O7 P

>  <MolecularWeight>
519.612

>  <ModifiedDate>
2011-07-13

>  <Parent>


>  <OneLetterCode>


>  <SubcomponentList>
IVA VAL VAL PT0

>  <AmbiguousFlag>
N

>  <InChI>
InChI=1S/C24H46N3O7P/c1-10-34-20(29)13-35(32,33)19(12-15(4)5)26-23(30)22(17(8)9)27-24(31)21(16(6)7)25-18(28)11-14(2)3/h14-17,19,21-22H,10-13H2,1-9H3,(H,25,28)(H,26,30)(H,27,31)(H,32,33)/t19-,21+,22+/m1/s1

>  <InChIKey>
GSDBAIBPJKAZKN-HJNYFJLDSA-N

>  <SMILES>
CCOC(=O)C[P@](=O)([C@H](CC(C)C)NC(=O)[C@H](C(C)C)NC(=O)[C@H](C(C)C)NC(=O)CC(C)C)O

$$$$
