1N3I_DIH_A_401
  RCSB PDB08012015303D
Coordinates from PDB:1N3I:A:401 Model:1 without hydrogens
 19 21  0  0  0  0            999 V2000
   54.7860   13.5760   44.0320   O 0  0  0  0  0  0  0  0  0  0  0  0
   54.9630   14.9140   44.4710   C 0  0  0  0  0  0  0  0  0  0  0  0
   56.2460   15.6180   44.7340   C 0  0  0  0  0  0  0  0  0  0  0  0
   57.0460   15.6340   43.5030   C 0  0  0  0  0  0  0  0  0  0  0  0
   56.0710   17.0320   45.1720   C 0  0  0  0  0  0  0  0  0  0  0  0
   56.9050   17.4660   46.2280   O 0  0  0  0  0  0  0  0  0  0  0  0
   56.2120   17.6320   43.8270   C 0  0  0  0  0  0  0  0  0  0  0  0
   57.3550   17.0200   43.2100   N 0  3  0  0  0  0  0  0  0  0  0  0
   57.5110   17.2290   41.7890   C 0  0  0  0  0  0  0  0  0  0  0  0
   56.6420   16.7970   40.6660   C 0  0  0  0  0  0  0  0  0  0  0  0
   56.7440   15.6870   39.8370   C 0  0  0  0  0  0  0  0  0  0  0  0
   55.8070   15.5800   38.9250   N 0  0  0  0  0  0  0  0  0  0  0  0
   54.9980   16.6890   39.1290   C 0  0  0  0  0  0  0  0  0  0  0  0
   53.7860   17.1310   38.4300   C 0  0  0  0  0  0  0  0  0  0  0  0
   53.2380   16.5700   37.4840   O 0  0  0  0  0  0  0  0  0  0  0  0
   53.2170   18.3510   38.9360   N 0  0  0  0  0  0  0  0  0  0  0  0
   53.7530   19.1040   40.0300   C 0  0  0  0  0  0  0  0  0  0  0  0
   54.9020   18.6860   40.6950   N 0  0  0  0  0  0  0  0  0  0  0  0
   55.4900   17.4660   40.2070   C 0  0  0  0  0  0  0  0  0  0  0  0
 15 14  2  0  0  0  0
 14 16  1  0  0  0  0
 14 13  1  0  0  0  0
 12 13  1  0  0  0  0
 12 11  1  0  0  0  0
 16 17  1  0  0  0  0
 13 19  2  0  0  0  0
 11 10  2  0  0  0  0
 17 18  2  0  0  0  0
 19 10  1  0  0  0  0
 19 18  1  0  0  0  0
 10  9  1  0  0  0  0
  9  8  1  0  0  0  0
  8  4  1  0  0  0  0
  8  7  1  0  0  0  0
  4  3  1  0  0  0  0
  7  5  1  0  0  0  0
  1  2  1  0  0  0  0
  2  3  1  0  0  0  0
  3  5  1  0  0  0  0
  5  6  1  0  0  0  0
M  CHG  1   8   1
M  END
>  <InstanceId>
1N3I_DIH_A_401

>  <ChemCompId>
DIH

>  <PdbId>
1N3I

>  <ChainId>
A

>  <ResidueNumber>
401

>  <InsertionCode>


>  <Model>
1

>  <AltIds>


>  <MissingHeavyAtoms>
0

>  <ObservedFormula>
C12 N4 O3

>  <Name>
7-[[(3R,4R)-3-(hydroxymethyl)-4-oxidanyl-pyrrolidin-1-ium-1-yl]methyl]-3,5-dihydropyrrolo[3,2-d]pyrimidin-4-one

>  <SystematicName>
7-[[(3~{R},4~{R})-3-(hydroxymethyl)-4-oxidanyl-pyrrolidin-1-ium-1-yl]methyl]-3,5-dihydropyrrolo[3,2-d]pyrimidin-4-one

>  <Synonyms>


>  <Type>
NON-POLYMER

>  <Formula>
C12 H17 N4 O3

>  <MolecularWeight>
265.288

>  <ModifiedDate>
2018-12-05

>  <Parent>


>  <OneLetterCode>


>  <SubcomponentList>


>  <AmbiguousFlag>
N

>  <InChI>
InChI=1S/C12H16N4O3/c17-5-8-3-16(4-9(8)18)2-7-1-13-11-10(7)14-6-15-12(11)19/h1,6,8-9,13,17-18H,2-5H2,(H,14,15,19)/p+1/t8-,9+/m1/s1

>  <InChIKey>
AFNHHLILYQEHKK-BDAKNGLRSA-O

>  <SMILES>
c1c(c2c([nH]1)C(=O)NC=N2)C[NH+]3C[C@@H]([C@H](C3)O)CO

$$$$
